Version 4
SHEET 1 3880 944
WIRE 256 -608 64 -608
WIRE 1568 -608 1408 -608
WIRE 1904 -592 1776 -592
WIRE 64 -544 64 -608
WIRE 640 -544 640 -672
WIRE 672 -544 640 -544
WIRE 864 -544 768 -544
WIRE 1008 -544 864 -544
WIRE 1408 -544 1408 -608
WIRE 1904 -544 1904 -592
WIRE 720 -432 720 -480
WIRE 768 -432 720 -432
WIRE 864 -432 864 -544
WIRE 64 -416 64 -464
WIRE 1408 -400 1408 -464
WIRE 1408 -400 1248 -400
WIRE 1904 -400 1904 -464
WIRE 1408 -336 1408 -400
WIRE 816 -304 816 -368
WIRE 1408 -192 1408 -256
WIRE 720 -16 720 -32
WIRE 1024 -16 1024 -32
WIRE 240 64 48 64
WIRE 48 112 48 64
WIRE 720 128 720 64
WIRE 1024 128 1024 64
WIRE 880 176 784 176
WIRE 960 176 880 176
WIRE 48 224 48 192
WIRE 880 224 880 176
WIRE 720 272 720 224
WIRE 816 272 720 272
WIRE 1024 304 1024 224
WIRE 1184 304 1024 304
WIRE 880 352 880 320
WIRE 880 464 880 432
WIRE 880 464 544 464
WIRE 720 512 720 272
WIRE 1024 512 1024 304
WIRE 656 560 544 560
WIRE 1184 560 1088 560
WIRE 720 656 720 608
WIRE 880 656 720 656
WIRE 1024 656 1024 608
WIRE 1024 656 880 656
WIRE 880 672 880 656
WIRE 880 768 880 752
FLAG 48 224 0
FLAG 240 64 V_ref
IOPIN 240 64 Out
FLAG 64 -416 0
FLAG 256 -608 V_in
IOPIN 256 -608 Out
FLAG 720 -32 V_in
IOPIN 720 -32 In
FLAG 1408 -192 0
FLAG 1008 -544 V_o
IOPIN 1008 -544 Out
FLAG 544 560 V_ref
IOPIN 544 560 In
FLAG 1904 -400 0
FLAG 1776 -592 V_o
IOPIN 1776 -592 In
FLAG 48 64 vref
FLAG 1904 -592 vo
FLAG 1184 560 V_f
IOPIN 1184 560 Out
FLAG 1568 -608 V_o
IOPIN 1568 -608 Out
FLAG 1248 -400 v_f
IOPIN 1248 -400 Out
FLAG 64 -608 vi
FLAG 640 -672 V_in
IOPIN 640 -672 In
FLAG 1184 304 V_amp
IOPIN 1184 304 Out
FLAG 816 -304 V_amp
IOPIN 816 -304 In
FLAG 880 768 0
FLAG 1024 -32 V_in
IOPIN 1024 -32 In
FLAG 544 464 V_ref
IOPIN 544 464 In
SYMBOL voltage 64 -560 R0
WINDOW 3 24 44 Left 2
WINDOW 123 24 44 Left 2
WINDOW 39 0 0 Left 0
SYMATTR Value {Vi}
SYMATTR InstName Vi
SYMBOL voltage 48 96 R0
WINDOW 3 24 152 Left 2
WINDOW 123 24 124 Left 2
WINDOW 39 0 0 Left 0
SYMATTR Value {VREF}
SYMATTR Value2 AC 0
SYMATTR InstName Vref
SYMBOL res 704 -32 R0
SYMATTR InstName R1
SYMATTR Value {RC}
SYMBOL res 1392 -560 R0
SYMATTR InstName R2
SYMATTR Value 2k
SYMBOL res 1392 -352 R0
SYMATTR InstName R3
SYMATTR Value 1k
SYMBOL res 1888 -560 R0
SYMATTR InstName RL
SYMATTR Value {RL}
SYMBOL npn 656 512 R0
SYMATTR InstName Q1
SYMATTR Value BC547C
SYMBOL npn 768 -368 R270
SYMATTR InstName Q2
SYMATTR Value 2N3019
SYMBOL pnp 768 -480 M270
SYMATTR InstName Q3
SYMATTR Value D45H11
SYMBOL npn 1088 512 M0
SYMATTR InstName Q4
SYMATTR Value BC547C
SYMBOL res 864 656 R0
SYMATTR InstName R4
SYMATTR Value {RE}
SYMBOL res 1008 -32 R0
SYMATTR InstName R5
SYMATTR Value {RC}
SYMBOL pnp 784 224 R180
SYMATTR InstName Q6
SYMATTR Value BC557C
SYMBOL pnp 960 224 M180
SYMATTR InstName Q5
SYMATTR Value BC557C
SYMBOL pnp 816 320 M180
SYMATTR InstName Q7
SYMATTR Value BC557C
SYMBOL res 864 336 R0
SYMATTR InstName R6
SYMATTR Value {RH}
TEXT 1704 504 Left 2 ;.step param RC 100 1k 25
TEXT 1704 536 Left 2 ;.step param RL 3.33 500 1
TEXT 2816 -40 Left 2 ;Regulacion de carga
TEXT 552 -320 Left 2 ;Transistor de paso
TEXT 1256 -160 Left 2 ;Realimentador
TEXT 1784 -336 Left 2 ;Carga
TEXT 560 800 Left 2 ;Amplificador
TEXT -40 -368 Left 2 ;Alimentacion
TEXT -40 304 Left 2 ;Generador
TEXT 1704 568 Left 2 ;.step param VREF 1.6 1.7 0.01
TEXT 2248 272 Left 2 ;Eficiencia
TEXT 2248 304 Left 2 ;-100*(V(vo)*I(RL))/(V(vi)*I(Vi))
TEXT 1688 -40 Left 2 ;Tensión de salida
TEXT 1696 -8 Left 2 ;.dc Vi 0 8\n;step param RL 3.33 500 1\n.param RL 3.33\n;param Vi=6.8\n  \n.meas DC VoEsp FIND V(vo) AT 6.8\n.meas DC VoError PARAM (VoEsp - 5)
TEXT 2248 -40 Left 2 ;Regulacion de linea
TEXT 2248 -8 Left 2 ;.dc Vi 0 8\n.param RL=3.33\n \n.meas DC Vol1rl FIND V(vo) AT=6.6\n.meas DC Vol2rl FIND V(vo) AT=7\n.meas DC RegLin PARAM ((Vol2rl - Vol1rl) / 0.4)
TEXT 2824 -8 Left 2 !.op\n.step param RL 3.33 500 10\n \n.meas OP Vo1rc FIND V(vo) AT 500\n.meas OP Vo2rc FIND V(vo) AT 3.33\n.meas OP Io1rc FIND I(RL) AT 500\n.meas OP Io2rc FIND I(RL) AT 3.33\n.meas OP RegCar PARAM (-(Vo2rc - Vo1rc) / (Io2rc - Io1rc) )
TEXT 1712 296 Left 2 !.param RC=500
TEXT 1712 272 Left 2 ;Parametros generales
TEXT 2832 256 Left 2 ;LDO
TEXT 2832 288 Left 2 ;.dc Vi 6.6 7\n.param RL=3.33\n \n.meas DC VoEnc FIND V(vo) AT 6.8\n.meas DC LDO PARAM (6.6 - VoEnc)
TEXT 1712 472 Left 2 ;Pruebas
TEXT 2248 344 Left 2 ;.dc Vi 0.5 8\n.param RL=3.33
TEXT 1712 328 Left 2 !.param VREF=1.67
TEXT 1712 360 Left 2 !.param Vi=6.8
TEXT 1704 600 Left 2 ;.step dec param RE 0.1 10k 2
TEXT 1712 392 Left 2 !.param RE=300
TEXT 1704 632 Left 2 ;.step dec param RH 100 100k 3
TEXT 1712 424 Left 2 !.param RH=1Meg
RECTANGLE Normal 1008 -304 544 -672 2
RECTANGLE Normal 1568 -144 1248 -672 2
RECTANGLE Normal 2032 -320 1776 -672 2
RECTANGLE Normal 1184 816 544 -32 2
RECTANGLE Normal -48 -352 256 -672 2
RECTANGLE Normal -48 320 240 -16 2
