Version 4
SHEET 1 8028 944
WIRE 256 -608 64 -608
WIRE 1568 -608 1408 -608
WIRE 1904 -592 1776 -592
WIRE 64 -544 64 -608
WIRE 640 -544 640 -672
WIRE 672 -544 640 -544
WIRE 864 -544 768 -544
WIRE 1008 -544 864 -544
WIRE 1408 -544 1408 -608
WIRE 1904 -544 1904 -592
WIRE 720 -432 720 -480
WIRE 768 -432 720 -432
WIRE 864 -432 864 -544
WIRE 64 -416 64 -464
WIRE 1408 -400 1408 -464
WIRE 1408 -400 1248 -400
WIRE 1904 -400 1904 -464
WIRE 1408 -336 1408 -400
WIRE 816 -304 816 -368
WIRE 1408 -192 1408 -256
WIRE 720 -16 720 -32
WIRE 1024 -16 1024 -32
WIRE 1376 16 1376 -32
WIRE 240 64 48 64
WIRE 48 112 48 64
WIRE 720 128 720 64
WIRE 1024 128 1024 64
WIRE 1376 128 1376 96
WIRE 880 176 784 176
WIRE 960 176 880 176
WIRE 1312 176 1264 176
WIRE 48 224 48 192
WIRE 880 256 880 176
WIRE 1024 256 1024 224
WIRE 1024 256 880 256
WIRE 720 304 720 224
WIRE 1264 304 1264 176
WIRE 1264 304 720 304
WIRE 1376 304 1376 224
WIRE 1488 304 1376 304
WIRE 720 352 720 304
WIRE 1024 352 1024 256
WIRE 1376 352 1376 304
WIRE 656 400 544 400
WIRE 1152 400 1088 400
WIRE 1312 400 1248 400
WIRE 1376 480 1376 448
WIRE 720 496 720 448
WIRE 880 496 720 496
WIRE 1024 496 1024 448
WIRE 1024 496 880 496
WIRE 880 512 880 496
WIRE 880 608 880 592
WIRE 1376 624 1376 560
WIRE 1152 656 1152 400
WIRE 1248 656 1248 400
FLAG 48 224 0
FLAG 240 64 V_ref
IOPIN 240 64 Out
FLAG 64 -416 0
FLAG 256 -608 V_in
IOPIN 256 -608 Out
FLAG 720 -32 V_in
IOPIN 720 -32 In
FLAG 1408 -192 0
FLAG 1008 -544 V_o
IOPIN 1008 -544 Out
FLAG 544 400 V_ref
IOPIN 544 400 In
FLAG 1904 -400 0
FLAG 1776 -592 V_o
IOPIN 1776 -592 In
FLAG 48 64 vref
FLAG 1904 -592 vo
FLAG 1152 656 V_f
IOPIN 1152 656 Out
FLAG 1568 -608 V_o
IOPIN 1568 -608 Out
FLAG 1248 -400 v_f
IOPIN 1248 -400 Out
FLAG 64 -608 vi
FLAG 640 -672 V_in
IOPIN 640 -672 In
FLAG 1488 304 V_amp
IOPIN 1488 304 Out
FLAG 816 -304 V_amp
IOPIN 816 -304 In
FLAG 880 608 0
FLAG 1024 -32 V_in
IOPIN 1024 -32 In
FLAG 1376 624 0
FLAG 1376 -32 V_in
IOPIN 1376 -32 In
FLAG 1248 656 V_ref
IOPIN 1248 656 In
SYMBOL voltage 64 -560 R0
WINDOW 3 24 44 Left 2
WINDOW 123 24 44 Left 2
WINDOW 39 0 0 Left 0
SYMATTR Value {Vi}
SYMATTR InstName Vi
SYMBOL voltage 48 96 R0
WINDOW 3 24 152 Left 2
WINDOW 123 24 124 Left 2
WINDOW 39 0 0 Left 0
SYMATTR Value {VREF}
SYMATTR Value2 AC 0
SYMATTR InstName Vref
SYMBOL res 704 -32 R0
SYMATTR InstName RC1
SYMATTR Value {RC1}
SYMBOL res 1392 -560 R0
SYMATTR InstName RD1
SYMATTR Value 2.2k
SYMBOL res 1392 -352 R0
SYMATTR InstName RD2
SYMATTR Value 1k
SYMBOL res 1888 -560 R0
SYMATTR InstName RL
SYMATTR Value {RL}
SYMBOL npn 656 352 R0
SYMATTR InstName Q1
SYMATTR Value BC547C
SYMBOL npn 768 -368 R270
SYMATTR InstName Q2
SYMATTR Value 2N3019
SYMBOL pnp 768 -480 M270
SYMATTR InstName Q3
SYMATTR Value D45H11
SYMBOL npn 1088 352 M0
SYMATTR InstName Q4
SYMATTR Value TBJ-NPN-1
SYMBOL res 864 496 R0
SYMATTR InstName RE1
SYMATTR Value {RE}
SYMBOL res 1008 -32 R0
SYMATTR InstName RC2
SYMATTR Value {RC2}
SYMBOL pnp 784 224 R180
SYMATTR InstName Q6
SYMATTR Value BC557C
SYMBOL pnp 960 224 M180
SYMATTR InstName Q5
SYMATTR Value BC557C
SYMBOL npn 1312 352 R0
SYMATTR InstName Q7
SYMATTR Value BC547C
SYMBOL res 1360 464 R0
SYMATTR InstName RB2
SYMATTR Value {RB2}
SYMBOL res 1360 0 R0
SYMATTR InstName RB1
SYMATTR Value {RB1}
SYMBOL pnp 1312 224 M180
SYMATTR InstName Q8
SYMATTR Value BC557C
TEXT 1712 592 Left 2 ;.step param RC 100 1500 100
TEXT 1712 624 Left 2 ;.step param RL 3.33 500 1
TEXT 2816 -40 Left 2 ;Regulacion de carga
TEXT 552 -320 Left 2 ;Transistor de paso
TEXT 1256 -160 Left 2 ;Realimentador
TEXT 1784 -336 Left 2 ;Carga
TEXT 560 640 Left 2 ;Amplificador
TEXT -40 -368 Left 2 ;Alimentacion
TEXT -40 304 Left 2 ;Generador
TEXT 1712 656 Left 2 ;.step param VREF 1.5 1.6 0.01
TEXT 2248 272 Left 2 ;Eficiencia
TEXT 2248 304 Left 2 ;-100*(V(vo)*I(RL))/(V(vi)*I(Vi))
TEXT 1688 -40 Left 2 ;Tensión de salida
TEXT 1696 -8 Left 2 ;.dc Vi 0 8\n.param RL 3.33\n  \n.meas DC VoEspMin FIND V(vo) AT 6.6\n.meas DC VoEspMed FIND V(vo) AT 6.8\n.meas DC VoEspMax FIND V(vo) AT 7\n.meas DC VoError PARAM ((VoEspMin + VoEspMed + VoEspMax)/3 - 5)
TEXT 2248 -40 Left 2 ;Regulacion de linea
TEXT 2248 -8 Left 2 !.dc Vi 0 8\n.param RL=3.33\n \n.meas DC Vol1rl FIND V(vo) AT=6.6\n.meas DC Vol2rl FIND V(vo) AT=7\n.meas DC RegLin PARAM ((Vol2rl - Vol1rl) / 0.4)
TEXT 2824 -8 Left 2 ;.op\n.step param RL 3.33 500 10\n \n.meas OP Vo1rc FIND V(vo) AT 500\n.meas OP Vo2rc FIND V(vo) AT 3.33\n.meas OP Io1rc FIND I(RL) AT 500\n.meas OP Io2rc FIND I(RL) AT 3.33\n.meas OP RegCar PARAM (-(Vo2rc - Vo1rc) / (Io2rc - Io1rc) )
TEXT 1712 296 Left 2 !.param RC1=510
TEXT 1712 272 Left 2 ;Parametros generales
TEXT 2832 256 Left 2 ;LDO
TEXT 2832 288 Left 2 ;.dc Vi 6.6 7\n.param RL=3.33\n \n.meas DC VoEnc FIND V(vo) AT 6.8\n.meas DC LDO PARAM (6.6 - VoEnc)
TEXT 1720 560 Left 2 ;Pruebas
TEXT 2248 344 Left 2 ;.dc Vi 0.5 8\n.param RL=3.33
TEXT 1712 352 Left 2 !.param VREF=1.56
TEXT 1712 384 Left 2 !.param Vi=6.8
TEXT 1712 688 Left 2 ;.step param RE 1350 1750 50
TEXT 1712 416 Left 2 !.param RE=1.5k
TEXT 1712 448 Left 2 !.param RB1=51
TEXT 1712 720 Left 2 ;.step param RB1 list 46 56
TEXT 1712 480 Left 2 !.param RB2=1.5
TEXT 1712 752 Left 2 ;.step param RB2 list 1.62k 1.98k
TEXT -32 -32 Left 2 ;Usar un potenciometro en el diseño final
TEXT 1712 320 Left 2 !.param RC2=510
TEXT 1704 792 Left 2 ;.step param RC1 list 460 510 560
TEXT 1704 824 Left 2 ;.step param RC2 list 460 510 560
TEXT 2232 544 Left 2 !.model TBJ-NPN-1 NPN(IS=4.679E-14 NF=1.01 ISE=2.642E-15 NE=1.581 BF={BETA} IKF=0.1371 VAF=52.64 NR=1.019 ISC=2.337E-14 NC=1.164 BR=11.57 IKR=0.1144 VAR=364.5 RB=1 IRB=1.00E-06 RBM=1 RE=0.2598 RC=1 XTB=0 EG=1.11 XTI=3 CJE=1.229E-11 VJE=0.5591 MJE=0.3385 TF=4.689E-10 XTF=160 VTF=2.828 ITF=0.8842 PTF=0 CJC=4.42E-12 VJC=0.1994 MJC=0.2782 XCJC=0.6193 TR=1.00E-32 CJS=0 VJS=0.75 MJS=0.333 FC=0.7936 Vceo=45 Icrating=100m mfg=Philips)
TEXT 2240 608 Left 2 !.param BETA 458.7
TEXT 2240 648 Left 2 ;.step param BETA list 420 520 800
RECTANGLE Normal 1008 -304 544 -672 2
RECTANGLE Normal 1568 -144 1248 -672 2
RECTANGLE Normal 2032 -320 1776 -672 2
RECTANGLE Normal 1488 656 544 -32 2
RECTANGLE Normal -48 -352 256 -672 2
RECTANGLE Normal -48 320 240 -16 2
