Version 4
SHEET 1 8108 1092
WIRE 1360 -592 1200 -592
WIRE -720 -576 -912 -576
WIRE -304 -560 -496 -560
WIRE 640 -560 512 -560
WIRE 832 -560 720 -560
WIRE 1200 -560 1200 -592
WIRE 1680 -560 1552 -560
WIRE 1840 -560 1680 -560
WIRE -912 -512 -912 -576
WIRE -496 -512 -496 -560
WIRE -80 -512 -80 -640
WIRE -48 -512 -80 -512
WIRE 144 -512 48 -512
WIRE 208 -512 144 -512
WIRE 256 -512 208 -512
WIRE 1680 -512 1680 -560
WIRE 1840 -496 1840 -560
WIRE 1200 -432 1200 -480
WIRE 1200 -432 1040 -432
WIRE -496 -400 -496 -432
WIRE 0 -400 0 -448
WIRE 48 -400 0 -400
WIRE 144 -400 144 -512
WIRE 1200 -400 1200 -432
WIRE -912 -384 -912 -432
WIRE 1680 -368 1680 -432
WIRE 1840 -368 1840 -432
WIRE 96 -272 96 -336
WIRE 1200 -272 1200 -320
WIRE -784 -48 -784 -64
WIRE -480 -48 -480 -64
WIRE 288 -16 288 -64
WIRE -192 32 -192 -64
WIRE 576 80 576 -64
WIRE -784 96 -784 32
WIRE -480 96 -480 32
WIRE 288 128 288 64
WIRE 512 128 288 128
WIRE -624 144 -720 144
WIRE -544 144 -624 144
WIRE 288 192 288 128
WIRE -624 224 -624 144
WIRE -480 224 -480 192
WIRE -480 224 -624 224
WIRE -192 224 -192 112
WIRE -784 272 -784 192
WIRE -256 272 -784 272
WIRE -784 320 -784 272
WIRE -480 320 -480 224
WIRE 288 320 288 272
WIRE -912 368 -1024 368
WIRE -848 368 -912 368
WIRE -352 368 -416 368
WIRE -192 384 -192 320
WIRE -80 384 -192 384
WIRE 576 416 576 176
WIRE -912 464 -912 368
WIRE -784 464 -784 416
WIRE -624 464 -784 464
WIRE -480 464 -480 416
WIRE -480 464 -624 464
WIRE -912 592 -912 544
WIRE -784 592 -912 592
WIRE -912 640 -912 592
WIRE -624 640 -624 464
WIRE -192 640 -192 384
WIRE -784 688 -784 592
WIRE -784 688 -848 688
WIRE -688 688 -784 688
WIRE -256 688 -688 688
WIRE -912 768 -912 736
WIRE -624 768 -624 736
WIRE -192 768 -192 736
WIRE -912 880 -912 848
WIRE -624 880 -624 848
WIRE -192 896 -192 848
WIRE -352 928 -352 368
FLAG -496 -400 0
FLAG -304 -560 V_ref
IOPIN -304 -560 BiDir
FLAG -912 -384 0
FLAG -720 -576 V_in
IOPIN -720 -576 BiDir
FLAG -784 -64 V_in
IOPIN -784 -64 BiDir
FLAG 1200 -272 0
FLAG -1024 368 V_ref
IOPIN -1024 368 BiDir
FLAG 1680 -368 0
FLAG 1552 -560 V_o
IOPIN 1552 -560 BiDir
FLAG -496 -560 vref
FLAG 1680 -560 vo
FLAG -352 928 V_f
IOPIN -352 928 BiDir
FLAG 1360 -592 V_o
IOPIN 1360 -592 BiDir
FLAG 1040 -432 V_f
IOPIN 1040 -432 BiDir
FLAG -912 -576 vi
FLAG -80 -640 V_in
IOPIN -80 -640 BiDir
FLAG -80 384 V_amp
IOPIN -80 384 BiDir
FLAG 96 -272 V_amp
IOPIN 96 -272 BiDir
FLAG -624 880 0
FLAG -480 -64 V_in
IOPIN -480 -64 BiDir
FLAG -192 896 0
FLAG -192 -64 V_in
IOPIN -192 -64 BiDir
FLAG -912 880 0
FLAG 832 -560 V_o
IOPIN 832 -560 BiDir
FLAG 1840 -368 0
FLAG 256 -512 V_paso
IOPIN 256 -512 BiDir
FLAG 512 -560 V_paso
IOPIN 512 -560 BiDir
FLAG 288 320 0
FLAG 576 416 V_amp
IOPIN 576 416 BiDir
FLAG 288 -64 V_paso
IOPIN 288 -64 BiDir
FLAG 576 -64 V_o
IOPIN 576 -64 BiDir
FLAG 208 -512 v_paso
SYMBOL voltage -912 -528 R0
WINDOW 3 24 44 Left 2
WINDOW 123 24 44 Left 2
WINDOW 39 0 0 Left 0
SYMATTR Value {Vi}
SYMATTR InstName Vi
SYMBOL voltage -496 -528 R0
WINDOW 3 24 152 Left 2
WINDOW 123 24 124 Left 2
WINDOW 39 0 0 Left 0
SYMATTR Value {VREF}
SYMATTR Value2 AC 0
SYMATTR InstName Vref
SYMBOL res -800 -64 R0
SYMATTR InstName RC1
SYMATTR Value {RC1}
SYMBOL res 1184 -576 R0
SYMATTR InstName RD1
SYMATTR Value {RD1}
SYMBOL res 1184 -416 R0
SYMATTR InstName RD2
SYMATTR Value {RD2}
SYMBOL res 1664 -528 R0
SYMATTR InstName RL
SYMATTR Value {RL}
SYMBOL npn -848 320 R0
SYMATTR InstName Q1
SYMATTR Value BC547C
SYMBOL npn 48 -336 R270
SYMATTR InstName Q2
SYMATTR Value BC547B
SYMBOL pnp 48 -448 M270
SYMATTR InstName Q3
SYMATTR Value 2SB688
SYMBOL npn -416 320 M0
SYMATTR InstName Q4
SYMATTR Value BC547C
SYMBOL res -640 752 R0
SYMATTR InstName RE1
SYMATTR Value {RE}
SYMBOL res -496 -64 R0
SYMATTR InstName RC2
SYMATTR Value {RC2}
SYMBOL pnp -720 192 R180
SYMATTR InstName Q6
SYMATTR Value BC557B
SYMBOL pnp -544 192 M180
SYMATTR InstName Q5
SYMATTR Value BC557B
SYMBOL npn -256 640 R0
SYMATTR InstName Q7
SYMATTR Value BC547C
SYMBOL res -208 752 R0
SYMATTR InstName RB2
SYMATTR Value {RB2}
SYMBOL res -208 16 R0
SYMATTR InstName RB1
SYMATTR Value {RB1}
SYMBOL pnp -256 320 M180
SYMATTR InstName Q8
SYMATTR Value BC557C
SYMBOL npn -688 640 R0
SYMATTR InstName Q9
SYMATTR Value BC547C
SYMBOL npn -848 640 M0
SYMATTR InstName Q10
SYMATTR Value BC547C
SYMBOL res -928 448 R0
SYMATTR InstName R1
SYMATTR Value 1.5k
SYMBOL res -928 752 R0
SYMATTR InstName R2
SYMATTR Value {RE}
SYMBOL res 736 -576 R90
WINDOW 0 0 56 VBottom 2
WINDOW 3 32 56 VTop 2
SYMATTR InstName R5
SYMATTR Value {RS}
SYMBOL cap 1824 -496 R0
SYMATTR InstName CL
SYMATTR Value {CL}
SYMBOL res 272 -32 R0
SYMATTR InstName RP3
SYMATTR Value {RP1}
SYMBOL res 272 176 R0
SYMATTR InstName RP4
SYMATTR Value {RP2}
SYMBOL npn 512 176 M180
SYMATTR InstName Q12
SYMATTR Value BC547C
TEXT 2880 352 Left 2 ;.step param RC1 list 500 1k
TEXT 3544 -192 Left 2 ;Regulacion de carga
TEXT -168 -304 Left 2 ;Transistor de paso
TEXT 1048 -200 Left 2 ;Realimentador\ntension
TEXT 1560 -304 Left 2 ;Carga
TEXT -1016 912 Left 2 ;Amplificador
TEXT -1016 -336 Left 2 ;Alimentacion
TEXT -584 -336 Left 2 ;Generador
TEXT 2880 416 Left 2 ;.step param VREF 1.5 1.6 0.01
TEXT 2872 -192 Left 2 ;Eficiencia
TEXT 2280 -192 Left 2 ;Regulacion de linea
TEXT 2280 -160 Left 2 ;.dc Vi 0 10\n.param RL=3.33\n \n.meas DC Vol1rl FIND V(vo) AT=9.3\n.meas DC Vol2rl FIND V(vo) AT=9.7\n.meas DC RegLin PARAM ((Vol2rl - Vol1rl) / 0.4)
TEXT 3544 -168 Left 2 ;.op\n.step param RL list 3.33 500\n \n.meas OP Vo1rc FIND V(vo) AT 500\n.meas OP Vo2rc FIND V(vo) AT 3.33\n.meas OP Io1rc FIND I(RL) AT 500\n.meas OP Io2rc FIND I(RL) AT 3.33\n.meas OP RegCar PARAM (-(Vo2rc - Vo1rc) / (Io2rc - Io1rc) )
TEXT 2280 352 Left 2 !.param RC1=500
TEXT 2280 320 Left 2 ;Parametros generales
TEXT 2872 320 Left 2 ;Pruebas
TEXT 2872 -160 Left 2 ;.dc Vi 9.3 9.7\n.param RL=3.33\n \n.meas DC EfiMin MIN -100*(V(vo)*I(RL))/(V(vi)*I(Vi))\n.meas DC EfiMax MAX -100*(V(vo)*I(RL))/(V(vi)*I(Vi))
TEXT 2280 416 Left 2 !.param VREF=1.56
TEXT 2280 448 Left 2 !.param Vi=9.5
TEXT 2880 472 Left 2 ;.step param RE list 500 1k 2k
TEXT 2280 480 Left 2 !.param RE=1k
TEXT 2280 512 Left 2 !.param RB1=51
TEXT 2880 504 Left 2 ;.step param RB1 list 46 56
TEXT 2280 544 Left 2 !.param RB2=1.8k
TEXT 2880 536 Left 2 ;.step param RB2 1.5k 3k 500
TEXT 2280 384 Left 2 !.param RC2=500
TEXT 2312 872 Left 2 !.model TBJ-NPN-1 NPN(IS=4.679E-14 NF=1.01 ISE=2.642E-15 NE=1.581 BF={BETA} IKF=0.1371 VAF=52.64 NR=1.019 ISC=2.337E-14 NC=1.164 BR=11.57 IKR=0.1144 VAR=364.5 RB=1 IRB=1.00E-06 RBM=1 RE=0.2598 RC=1 XTB=0 EG=1.11 XTI=3 CJE=1.229E-11 VJE=0.5591 MJE=0.3385 TF=4.689E-10 XTF=160 VTF=2.828 ITF=0.8842 PTF=0 CJC=4.42E-12 VJC=0.1994 MJC=0.2782 XCJC=0.6193 TR=1.00E-32 CJS=0 VJS=0.75 MJS=0.333 FC=0.7936 Vceo=45 Icrating=100m mfg=Philips)
TEXT 2312 936 Left 2 !.param BETA 458.7
TEXT 2312 976 Left 2 ;.step param BETA list 420 520 800
TEXT 2312 904 Left 2 !.model 2SB688 PNP(Bf=70 Br=1 Is=73f Eg=1.11 Cjc=4.8p Cje=10p Vaf=100 Tf=1.923n Tr=10n Mjc=.330 Vjc=.75 Mje=.33 Vje=.75 Cjs=2p )
TEXT 2872 112 Left 2 ;.op\n.step dec param RL 500 0.1m 5
TEXT 2872 80 Left 2 ;Limitador de corriente
TEXT 2312 840 Left 2 ;Modelos
TEXT 2880 384 Left 2 ;.step param RC2 list 1k 2k 5k
TEXT 2280 80 Left 2 ;Tension esperada
TEXT 2280 112 Left 2 ;.op\n.step param RL 3.33 500 10\n.meas OP VoMin MIN V(vo)\n.meas OP VoMax MAX V(vo)
TEXT 2280 576 Left 2 !.param CL=2.2u
TEXT 2280 608 Left 2 !.param RD1=2.2k RD2=1k
TEXT 2880 600 Left 2 ;.step dec param RD2 1 10k 4
TEXT 2280 640 Left 2 !.param RS=2.2
TEXT 2280 672 Left 2 !.param RP1=4.7k RP2=4.7k
TEXT 2880 672 Left 2 ;.step param RP1 list 1k 2k 2.5k  5k
TEXT 520 -440 Left 2 ;Relimentador\ncorriente
TEXT 2880 632 Left 2 ;.step param RS list 1.5 1.7 2.2 2.5
TEXT 192 392 Left 2 ;Limitador de corriente
TEXT 3544 80 Left 2 ;LDO
TEXT 3544 120 Left 2 !.dc Vi 0 10\n.param RL=3.33\n \n.meas DC VpasoMax MAX V(v_paso)\n.meas DC ViMin FIND V(vi) WHEN V(v_paso) = VpasoMax - 0.05\n.meas DC dropout PARAM ViMin - VpasoMax
RECTANGLE Normal 256 -272 -176 -640 2
RECTANGLE Normal 1360 -160 1040 -640 2
RECTANGLE Normal 1936 -288 1552 -640 2
RECTANGLE Normal -80 928 -1024 -64 2
RECTANGLE Normal -1024 -320 -720 -640 2
RECTANGLE Normal -592 -320 -304 -640 2
RECTANGLE Normal 832 -400 512 -640 2
RECTANGLE Normal 672 416 176 -64 2
RECTANGLE Normal 2864 64 2272 -176 2
RECTANGLE Normal 3536 64 2864 -176 2
RECTANGLE Normal 4288 64 3536 -176 2
RECTANGLE Normal 2864 -208 2272 -176 2
RECTANGLE Normal 3536 -208 2864 -176 2
RECTANGLE Normal 4288 -208 3536 -176 2
RECTANGLE Normal 2864 64 2272 96 2
RECTANGLE Normal 3536 64 2864 96 2
RECTANGLE Normal 4288 64 3536 96 2
RECTANGLE Normal 2864 304 2272 96 2
RECTANGLE Normal 3536 304 2864 96 2
RECTANGLE Normal 4288 304 3536 96 2
RECTANGLE Normal 2864 304 2272 336 2
RECTANGLE Normal 3536 304 2864 336 2
RECTANGLE Normal 2864 720 2272 336 2
RECTANGLE Normal 3536 720 2864 336 2
