Version 4
SHEET 1 3880 944
WIRE 256 -608 64 -608
WIRE 1568 -608 1408 -608
WIRE 1904 -592 1776 -592
WIRE 64 -544 64 -608
WIRE 640 -544 640 -672
WIRE 672 -544 640 -544
WIRE 864 -544 768 -544
WIRE 1008 -544 864 -544
WIRE 1408 -544 1408 -608
WIRE 1904 -544 1904 -592
WIRE 720 -432 720 -480
WIRE 768 -432 720 -432
WIRE 864 -432 864 -544
WIRE 64 -416 64 -464
WIRE 1408 -400 1408 -464
WIRE 1408 -400 1248 -400
WIRE 1904 -400 1904 -464
WIRE 1408 -336 1408 -400
WIRE 816 -304 816 -368
WIRE 1408 -192 1408 -256
WIRE 720 0 720 -32
WIRE 944 16 944 -32
WIRE 240 64 48 64
WIRE 48 112 48 64
WIRE 944 160 944 96
WIRE 1184 160 944 160
WIRE 48 224 48 192
WIRE 720 240 720 80
WIRE 944 240 944 160
WIRE 656 288 544 288
WIRE 1184 288 1008 288
WIRE 720 384 720 336
WIRE 832 384 720 384
WIRE 944 384 944 336
WIRE 944 384 832 384
WIRE 832 400 832 384
WIRE 832 496 832 480
FLAG 48 224 0
FLAG 240 64 V_ref
IOPIN 240 64 Out
FLAG 64 -416 0
FLAG 256 -608 V_in
IOPIN 256 -608 Out
FLAG 720 -32 V_in
IOPIN 720 -32 In
FLAG 1408 -192 0
FLAG 1008 -544 V_o
IOPIN 1008 -544 Out
FLAG 544 288 V_ref
IOPIN 544 288 In
FLAG 1904 -400 0
FLAG 1776 -592 V_o
IOPIN 1776 -592 In
FLAG 48 64 vref
FLAG 1904 -592 vo
FLAG 1184 288 V_f
IOPIN 1184 288 Out
FLAG 1568 -608 V_o
IOPIN 1568 -608 Out
FLAG 1248 -400 v_f
IOPIN 1248 -400 Out
FLAG 64 -608 vi
FLAG 640 -672 V_in
IOPIN 640 -672 In
FLAG 1184 160 V_amp
IOPIN 1184 160 Out
FLAG 816 -304 V_amp
IOPIN 816 -304 In
FLAG 832 496 0
FLAG 944 -32 V_in
IOPIN 944 -32 In
SYMBOL voltage 64 -560 R0
WINDOW 3 24 44 Left 2
WINDOW 123 24 44 Left 2
WINDOW 39 0 0 Left 0
SYMATTR InstName Vi
SYMATTR Value {Vi}
SYMBOL voltage 48 96 R0
WINDOW 3 24 152 Left 2
WINDOW 123 24 124 Left 2
WINDOW 39 0 0 Left 0
SYMATTR InstName Vref
SYMATTR Value {VREF}
SYMATTR Value2 AC 0
SYMBOL res 704 -16 R0
SYMATTR InstName R1
SYMATTR Value {RC}
SYMBOL res 1392 -560 R0
SYMATTR InstName R2
SYMATTR Value 4k
SYMBOL res 1392 -352 R0
SYMATTR InstName R3
SYMATTR Value 1k
SYMBOL res 1888 -560 R0
SYMATTR InstName RL
SYMATTR Value {RL}
SYMBOL npn 656 240 R0
SYMATTR InstName Q1
SYMATTR Value BC547C
SYMBOL npn 768 -368 R270
SYMATTR InstName Q2
SYMATTR Value 2N3019
SYMBOL pnp 768 -480 M270
SYMATTR InstName Q3
SYMATTR Value D45H11
SYMBOL npn 1008 240 M0
SYMATTR InstName Q4
SYMATTR Value BC547C
SYMBOL res 816 384 R0
SYMATTR InstName R4
SYMATTR Value {RE}
SYMBOL res 928 0 R0
SYMATTR InstName R5
SYMATTR Value {RC}
TEXT 1704 504 Left 2 ;.step param RC 100 1k 25
TEXT 1704 536 Left 2 ;.step param RL 3.33 500 1
TEXT 2816 -40 Left 2 ;Regulacion de carga
TEXT 552 -320 Left 2 ;Transistor de paso
TEXT 1256 -160 Left 2 ;Realimentador
TEXT 1784 -336 Left 2 ;Carga
TEXT 560 528 Left 2 ;Amplificador
TEXT -40 -368 Left 2 ;Alimentacion
TEXT -40 304 Left 2 ;Generador
TEXT 1704 568 Left 2 ;.step param VREF 0.1 5 0.1
TEXT 2248 272 Left 2 ;Eficiencia
TEXT 2248 304 Left 2 ;-100*(V(vo)*I(RL))/(V(vi)*I(Vi))
TEXT 1688 -40 Left 2 ;Tensión de salida
TEXT 1696 -8 Left 2 ;.dc Vi 0 8\n;step param RL 3.33 500 1\n.param RL 3.33\n;param Vi=6.8\n  \n.meas DC VoEsp FIND V(vo) AT 6.8\n.meas DC VoError PARAM (VoEsp - 5)
TEXT 2248 -40 Left 2 ;Regulacion de linea
TEXT 2248 -8 Left 2 ;.dc Vi 0 8\n.param RL=3.33\n \n.meas DC Vol1rl FIND V(vo) AT=6.6\n.meas DC Vol2rl FIND V(vo) AT=7\n.meas DC RegLin PARAM ((Vol2rl - Vol1rl) / 0.4)
TEXT 2824 -8 Left 2 ;.op\n.step param RL 3.33 500 10\n \n.meas OP Vo1rc FIND V(vo) AT 500\n.meas OP Vo2rc FIND V(vo) AT 3.33\n.meas OP Io1rc FIND I(RL) AT 500\n.meas OP Io2rc FIND I(RL) AT 3.33\n.meas OP RegCar PARAM (-(Vo2rc - Vo1rc) / (Io2rc - Io1rc) )
TEXT 1712 296 Left 2 !.param RC=100
TEXT 1712 272 Left 2 ;Parametros generales
TEXT 2832 256 Left 2 ;LDO
TEXT 2832 288 Left 2 ;.dc Vi 6.6 7\n.param RL=3.33\n \n.meas DC VoEnc FIND V(vo) AT 6.8\n.meas DC LDO PARAM (6.6 - VoEnc)
TEXT 1712 472 Left 2 ;Pruebas
TEXT 2248 344 Left 2 !.dc Vi 0.5 8\n.param RL=3.33
TEXT 1712 328 Left 2 !.param VREF=1
TEXT 1712 360 Left 2 !.param Vi=6.8
TEXT 1704 600 Left 2 ;.step dec param RE 0.1 10k 5
TEXT 1712 392 Left 2 !.param RE=10
RECTANGLE Normal 1008 -304 544 -672 2
RECTANGLE Normal 1568 -144 1248 -672 2
RECTANGLE Normal 2032 -320 1776 -672 2
RECTANGLE Normal 1184 544 544 -32 2
RECTANGLE Normal -48 -352 256 -672 2
RECTANGLE Normal -48 320 240 -16 2
