Version 4
SHEET 1 8164 4020
WIRE 1360 -592 1200 -592
WIRE -720 -576 -912 -576
WIRE -304 -560 -496 -560
WIRE 640 -560 512 -560
WIRE 832 -560 720 -560
WIRE 1200 -560 1200 -592
WIRE 1680 -560 1552 -560
WIRE 1840 -560 1680 -560
WIRE -912 -512 -912 -576
WIRE -496 -512 -496 -560
WIRE -80 -512 -80 -640
WIRE -48 -512 -80 -512
WIRE 144 -512 48 -512
WIRE 208 -512 144 -512
WIRE 256 -512 208 -512
WIRE 1680 -512 1680 -560
WIRE 1840 -496 1840 -560
WIRE 1200 -432 1200 -480
WIRE 1200 -432 1040 -432
WIRE -496 -400 -496 -432
WIRE 0 -400 0 -448
WIRE 48 -400 0 -400
WIRE 144 -400 144 -512
WIRE 1200 -400 1200 -432
WIRE -912 -384 -912 -432
WIRE 1680 -368 1680 -432
WIRE 1840 -368 1840 -432
WIRE 96 -272 96 -336
WIRE 1200 -272 1200 -320
WIRE -784 -16 -784 -32
WIRE -480 -16 -480 -32
WIRE 256 16 256 -32
WIRE 1264 16 1264 -32
WIRE 1568 16 1568 -32
WIRE 1120 48 1120 -32
WIRE -192 64 -192 -32
WIRE 1712 64 1712 -32
WIRE 560 112 560 -32
WIRE -784 128 -784 64
WIRE -480 128 -480 64
WIRE 256 160 256 96
WIRE 496 160 256 160
WIRE -624 176 -720 176
WIRE -544 176 -624 176
WIRE 1264 176 1264 96
WIRE 1568 176 1568 96
WIRE 256 224 256 160
WIRE 992 224 944 224
WIRE 1120 224 1120 128
WIRE 1120 224 1072 224
WIRE 1200 224 1120 224
WIRE 1712 224 1712 144
WIRE 1712 224 1632 224
WIRE 1760 224 1712 224
WIRE 1888 224 1840 224
WIRE -624 256 -624 176
WIRE -480 256 -480 224
WIRE -480 256 -624 256
WIRE -192 256 -192 144
WIRE 944 288 944 224
WIRE 1120 288 1120 224
WIRE 1712 288 1712 224
WIRE 1888 288 1888 224
WIRE -784 304 -784 224
WIRE -256 304 -784 304
WIRE 1264 320 1264 272
WIRE 1424 320 1264 320
WIRE 1568 320 1568 272
WIRE 1568 320 1424 320
WIRE -784 352 -784 304
WIRE -480 352 -480 256
WIRE 256 352 256 304
WIRE -912 400 -1024 400
WIRE -848 400 -912 400
WIRE -352 400 -416 400
WIRE -192 416 -192 352
WIRE -80 416 -192 416
WIRE 1120 416 1120 368
WIRE 1424 416 1424 320
WIRE 1712 416 1712 368
WIRE 1712 416 1424 416
WIRE 560 448 560 208
WIRE -912 496 -912 400
WIRE -784 496 -784 448
WIRE -624 496 -784 496
WIRE -480 496 -480 448
WIRE -480 496 -624 496
WIRE -352 544 -352 400
WIRE 1424 544 1424 416
WIRE -912 624 -912 576
WIRE -784 624 -912 624
WIRE -912 672 -912 624
WIRE -624 672 -624 496
WIRE -192 672 -192 416
WIRE 256 672 128 672
WIRE 672 672 528 672
WIRE -784 720 -784 624
WIRE -784 720 -848 720
WIRE -688 720 -784 720
WIRE -256 720 -688 720
WIRE 256 768 256 672
WIRE 384 768 256 768
WIRE 528 768 384 768
WIRE -912 800 -912 768
WIRE -624 800 -624 768
WIRE -192 800 -192 768
WIRE -912 912 -912 880
WIRE -624 912 -624 880
WIRE -192 912 -192 880
WIRE -352 976 -352 624
WIRE 384 976 384 768
FLAG -496 -400 0
FLAG -304 -560 V_ref
IOPIN -304 -560 BiDir
FLAG -912 -384 0
FLAG -720 -576 V_in
IOPIN -720 -576 BiDir
FLAG -784 -32 V_in
IOPIN -784 -32 BiDir
FLAG 1200 -272 0
FLAG -1024 400 V_ref
IOPIN -1024 400 BiDir
FLAG 1680 -368 0
FLAG 1552 -560 V_o
IOPIN 1552 -560 BiDir
FLAG -496 -560 vref
FLAG 1680 -560 vo
FLAG -352 976 V_f
IOPIN -352 976 BiDir
FLAG 1360 -592 V_o
IOPIN 1360 -592 BiDir
FLAG 1040 -432 V_fv
IOPIN 1040 -432 BiDir
FLAG -912 -576 vi
FLAG -80 -640 V_in
IOPIN -80 -640 BiDir
FLAG -80 416 V_amp
IOPIN -80 416 BiDir
FLAG 96 -272 V_amp
IOPIN 96 -272 BiDir
FLAG -624 912 0
FLAG -480 -32 V_in
IOPIN -480 -32 BiDir
FLAG -192 912 0
FLAG -192 -32 V_in
IOPIN -192 -32 BiDir
FLAG -912 912 0
FLAG 832 -560 V_o
IOPIN 832 -560 BiDir
FLAG 1840 -368 0
FLAG 256 -512 V_paso
IOPIN 256 -512 BiDir
FLAG 512 -560 V_paso
IOPIN 512 -560 BiDir
FLAG 256 352 0
FLAG 560 448 V_amp
IOPIN 560 448 BiDir
FLAG 256 -32 V_paso
IOPIN 256 -32 BiDir
FLAG 560 -32 V_o
IOPIN 560 -32 BiDir
FLAG 208 -512 v_paso
FLAG 1120 -32 V_paso
IOPIN 1120 -32 BiDir
FLAG 1712 -32 V_o
IOPIN 1712 -32 BiDir
FLAG 1424 544 V_fc
IOPIN 1424 544 BiDir
FLAG 1264 -32 V_ref
IOPIN 1264 -32 BiDir
FLAG 1568 -32 V_ref
IOPIN 1568 -32 BiDir
FLAG 1120 416 0
FLAG 944 288 0
FLAG 1888 288 0
FLAG 384 976 V_f
IOPIN 384 976 BiDir
FLAG 672 672 V_fc
IOPIN 672 672 BiDir
FLAG 128 672 V_fv
IOPIN 128 672 BiDir
SYMBOL voltage -912 -528 R0
WINDOW 3 24 44 Left 2
WINDOW 123 24 44 Left 2
WINDOW 39 0 0 Left 0
SYMATTR Value {Vi}
SYMATTR InstName Vi
SYMBOL voltage -496 -528 R0
WINDOW 3 24 152 Left 2
WINDOW 123 24 124 Left 2
WINDOW 39 0 0 Left 0
SYMATTR Value {VREF}
SYMATTR Value2 AC 0
SYMATTR InstName Vref
SYMBOL res -800 -32 R0
SYMATTR InstName RC1
SYMATTR Value {RC1}
SYMBOL res 1184 -576 R0
SYMATTR InstName RD1
SYMATTR Value {RD1}
SYMBOL res 1184 -416 R0
SYMATTR InstName RD2
SYMATTR Value {RD2}
SYMBOL res 1664 -528 R0
SYMATTR InstName RL
SYMATTR Value {RL}
SYMBOL npn -848 352 R0
SYMATTR InstName Q1
SYMATTR Value BC547C
SYMBOL npn 48 -336 R270
SYMATTR InstName Q2
SYMATTR Value BC547B
SYMBOL pnp 48 -448 M270
SYMATTR InstName Q3
SYMATTR Value 2SB688
SYMBOL npn -416 352 M0
SYMATTR InstName Q4
SYMATTR Value BC547C
SYMBOL res -640 784 R0
SYMATTR InstName RE1
SYMATTR Value {RE}
SYMBOL res -496 -32 R0
SYMATTR InstName RC2
SYMATTR Value {RC2}
SYMBOL pnp -720 224 R180
SYMATTR InstName Q6
SYMATTR Value BC557B
SYMBOL pnp -544 224 M180
SYMATTR InstName Q5
SYMATTR Value BC557B
SYMBOL npn -256 672 R0
SYMATTR InstName Q7
SYMATTR Value BC547C
SYMBOL res -208 784 R0
SYMATTR InstName RB2
SYMATTR Value {RB2}
SYMBOL res -208 48 R0
SYMATTR InstName RB1
SYMATTR Value {RB1}
SYMBOL pnp -256 352 M180
SYMATTR InstName Q8
SYMATTR Value BC557C
SYMBOL npn -688 672 R0
SYMATTR InstName Q9
SYMATTR Value BC547C
SYMBOL npn -848 672 M0
SYMATTR InstName Q10
SYMATTR Value BC547C
SYMBOL res -928 480 R0
SYMATTR InstName R1
SYMATTR Value 1k
SYMBOL res -928 784 R0
SYMATTR InstName R2
SYMATTR Value {RE}
SYMBOL res 736 -576 R90
WINDOW 0 0 56 VBottom 2
WINDOW 3 32 56 VTop 2
SYMATTR InstName R5
SYMATTR Value {RS}
SYMBOL cap 1824 -496 R0
SYMATTR InstName CL
SYMATTR Value {CL}
SYMBOL res 240 0 R0
SYMATTR InstName RP3
SYMATTR Value {RP1}
SYMBOL res 240 208 R0
SYMATTR InstName RP4
SYMATTR Value {RP2}
SYMBOL npn 496 208 M180
SYMATTR InstName Q12
SYMATTR Value BC547C
SYMBOL npn 1200 176 R0
SYMATTR InstName Q11
SYMATTR Value BC547C
SYMBOL npn 1632 176 M0
SYMATTR InstName Q13
SYMATTR Value BC547C
SYMBOL res 1696 48 R0
SYMATTR InstName R3
SYMATTR Value {ALC_R1}
SYMBOL res 1728 272 M0
SYMATTR InstName R4
SYMATTR Value {ALC_R3}
SYMBOL res 1248 0 R0
SYMATTR InstName R6
SYMATTR Value {ALC_C1}
SYMBOL res 1584 112 R180
WINDOW 0 36 76 Left 2
WINDOW 3 36 40 Left 2
SYMATTR InstName R7
SYMATTR Value {ALC_C2}
SYMBOL res 1136 32 M0
SYMATTR InstName R8
SYMATTR Value {ALC_R1}
SYMBOL res 1104 272 R0
SYMATTR InstName R9
SYMATTR Value {ALC_R3}
SYMBOL res 1856 208 R90
WINDOW 0 0 56 VBottom 2
WINDOW 3 32 56 VTop 2
SYMATTR InstName R10
SYMATTR Value {ALC_R2}
SYMBOL res 1088 240 M270
WINDOW 0 32 56 VTop 2
WINDOW 3 0 56 VBottom 2
SYMATTR InstName R11
SYMATTR Value {ALC_R2}
SYMBOL res -368 528 R0
SYMATTR InstName R12
SYMATTR Value 1k
TEXT 2856 488 Left 2 ;.step param RC1 list 500 1k
TEXT 3528 -592 Left 2 ;Regulacion de carga
TEXT -168 -288 Left 2 ;Transistor de paso
TEXT 1048 -216 Left 2 ;Realimentador tension
TEXT 1560 -304 Left 2 ;Carga
TEXT -1016 960 Left 2 ;Amplificador
TEXT -1016 -336 Left 2 ;Alimentacion
TEXT -584 -336 Left 2 ;Generador
TEXT 2856 -592 Left 2 ;Eficiencia
TEXT 2200 -592 Left 2 ;Regulacion de linea
TEXT 2200 -560 Left 2 ;.dc Vi 0 10\n \n.meas DC Vol1rl FIND V(vo) AT=9.3\n.meas DC Vol2rl FIND V(vo) AT=9.7\n.meas DC RegLin PARAM ((Vol2rl - Vol1rl) / 0.4)
TEXT 3528 -568 Left 2 ;.op\n.step param RL list 3.33 500\n \n.meas OP Vo1rc FIND V(vo) AT 500\n.meas OP Vo2rc FIND V(vo) AT 3.33\n.meas OP Io1rc FIND I(RL) AT 500\n.meas OP Io2rc FIND I(RL) AT 3.33\n.meas OP RegCar PARAM (-(Vo2rc - Vo1rc) / (Io2rc - Io1rc) )
TEXT 2856 272 Left 2 !.param RC1=500
TEXT 2200 240 Left 2 ;Generales
TEXT 2856 240 Left 2 ;Amplificador
TEXT 2856 -560 Left 2 ;.dc Vi 9.3 9.7\n \n.meas DC EfiMin MIN -100*(V(vo)*I(RL))/(V(vi)*I(Vi))\n.meas DC EfiMax MAX -100*(V(vo)*I(RL))/(V(vi)*I(Vi))
TEXT 2200 304 Left 2 !.param VREF=1.56
TEXT 2200 272 Left 2 !.param Vi=9.5
TEXT 2856 552 Left 2 ;.step param RE list 500 1k 2k
TEXT 2856 336 Left 2 !.param RE=10k
TEXT 2856 368 Left 2 !.param RB1=51
TEXT 2856 584 Left 2 ;.step param RB1 list 46 56
TEXT 2856 400 Left 2 !.param RB2=1.8k
TEXT 2856 616 Left 2 ;.step param RB2 1.5k 3k 500
TEXT 2856 304 Left 2 !.param RC2=500
TEXT 2200 1032 Left 2 !.model 2SB688 PNP(Bf=70 Br=1 Is=73f Eg=1.11 Cjc=4.8p Cje=10p Vaf=100 Tf=1.923n Tr=10n Mjc=.330 Vjc=.75 Mje=.33 Vje=.75 Cjs=2p )
TEXT 2856 -288 Left 2 ;.op\n.step dec param RL 500 0.1m 5
TEXT 2856 -320 Left 2 ;Limitador de corriente
TEXT 2208 992 Left 2 ;Modelos
TEXT 2856 520 Left 2 ;.step param RC2 list 1k 2k 5k
TEXT 2200 -320 Left 2 ;Tension esperada
TEXT 2200 -288 Left 2 ;.op\n.step param RL 3.33 500 10\n \n.meas OP VoMin MIN V(vo) - 5\n.meas OP VoMax MAX V(vo) - 5\n.meas OP diff PARAM max(abs(VoMin), abs(VoMax))
TEXT 2200 336 Left 2 !.param CL=2.2u
TEXT 2856 736 Left 2 !.param RD1=2.2k
TEXT 2856 824 Left 2 ;.step dec param RD1 1 10k 4
TEXT 2200 736 Left 2 !.param RS=2.2
TEXT 520 -440 Left 2 ;Relimentador corriente
TEXT 2200 824 Left 2 ;.step param RS list 1.5 1.7 2.2 2.5
TEXT 160 424 Left 2 ;Limitador de corriente
TEXT 3528 -320 Left 2 ;LDO
TEXT 3528 -280 Left 2 ;.dc Vi 0 10\n \n.meas DC VpasoMax MAX V(v_paso)\n.meas DC ViMin FIND V(vi) WHEN V(v_paso) = VpasoMax - 0.05\n.meas DC dropout PARAM ViMin - VpasoMax
TEXT 896 520 Left 2 ;Amplificador lazo corriente
TEXT 2200 496 Left 2 ;.step param VREF 1.5 1.6 0.01
TEXT 2200 368 Left 2 !.param RL=3.33
TEXT 3528 240 Left 2 ;Amplificador lazo corriente
TEXT 2200 704 Left 2 ;Relimentador corriente
TEXT 2200 208 Left 2 ;Parametros
TEXT 2200 -624 Left 2 ;Metricas
TEXT 2856 704 Left 2 ;Realimentador tension
TEXT 2856 768 Left 2 !.param RD2=1k
TEXT 2856 856 Left 2 ;.step dec param RD2 1 10k 4
TEXT 3528 272 Left 2 !.param ALC_C1=1k
TEXT 3528 304 Left 2 !.param ALC_C2=1k
TEXT 3528 336 Left 2 !.param ALC_R1=3.9k
TEXT 3528 368 Left 2 !.param ALC_R2=1.8k
TEXT 3528 488 Left 2 ;.step param ALC_C1 list 250 500 1k 2k
TEXT 3528 520 Left 2 ;.step param ALC_C2 list 500 1k
TEXT 3528 552 Left 2 ;.step param ALC_R1 list 2.7k 3.3k 3.9k 4.7k
TEXT 3528 584 Left 2 ;.step param ALC_R2 list 1.2k 1.5k 1.8k 2.2k 2.7k 3.3k
TEXT 3528 400 Left 2 !.param ALC_R3=3.3k
TEXT 3528 616 Left 2 ;.step param ALC_R3 list 2.2k 2.7k 3.3k 3.9k 4.7k 5.1k 5.6k 6.8k
TEXT 2856 -96 Left 2 ;Corriente esperada
TEXT 2856 -64 Left 2 ;.dc Vi 9.3 9.7\n \n.meas DC IoMin MIN I(rl) - 1.5\n.meas DC IoMax MAX I(rl) - 1.5\n.meas DC diff PARAM max(abs(IoMin), abs(IoMax))
TEXT 2200 -96 Left 2 ;Barrido de tension
TEXT 2200 -64 Left 2 ;.dc Vi 0 10
TEXT 144 952 Left 2 ;Llave de seleccion
TEXT 3528 736 Left 2 !.param RP1=100
TEXT 3528 824 Left 2 ;.step param RP1 list 1k 2k 2.5k  5k
TEXT 3752 704 Left 2 ;Limitador de corriente
TEXT 3528 768 Left 2 !.param RP2=180
TEXT 3528 856 Left 2 ;.step param RP1 list 1k 2k 2.5k  5k
LINE Normal 4272 464 2192 464 2
LINE Normal 4272 800 2192 800 2
RECTANGLE Normal 256 -272 -176 -640 2
RECTANGLE Normal 1360 -176 1040 -640 2
RECTANGLE Normal 1936 -288 1552 -640 2
RECTANGLE Normal -80 976 -1024 -32 2
RECTANGLE Normal -1024 -320 -720 -640 2
RECTANGLE Normal -592 -320 -304 -640 2
RECTANGLE Normal 832 -416 512 -640 2
RECTANGLE Normal 656 448 144 -32 2
RECTANGLE Normal 2848 -336 2192 -576 2
RECTANGLE Normal 3520 -336 2848 -576 2
RECTANGLE Normal 4272 -336 3520 -576 2
RECTANGLE Normal 2848 -608 2192 -576 2
RECTANGLE Normal 3520 -608 2848 -576 2
RECTANGLE Normal 4272 -608 3520 -576 2
RECTANGLE Normal 2848 -336 2192 -304 2
RECTANGLE Normal 3520 -336 2848 -304 2
RECTANGLE Normal 4272 -336 3520 -304 2
RECTANGLE Normal 2848 -112 2192 -304 2
RECTANGLE Normal 4272 -112 3520 -304 2
RECTANGLE Normal 2848 224 2192 256 2
RECTANGLE Normal 2848 688 2192 256 2
RECTANGLE Normal 3520 688 2848 256 2
RECTANGLE Normal 1936 544 880 -32 2
RECTANGLE Normal 3520 224 2848 256 2
RECTANGLE Normal 3520 -112 2848 -304 2
RECTANGLE Normal 4272 224 3520 256 2
RECTANGLE Normal 4272 688 3520 256 2
RECTANGLE Normal 2848 688 2192 720 2
RECTANGLE Normal 3520 688 2848 720 2
RECTANGLE Normal 4272 688 3520 720 2
RECTANGLE Normal 2848 896 2192 720 2
RECTANGLE Normal 4272 192 2192 224 2
RECTANGLE Normal 4272 -640 2192 -608 2
RECTANGLE Normal 3520 896 2848 720 2
RECTANGLE Normal 2848 -80 3520 -112 2
RECTANGLE Normal 3520 96 2848 -80 2
RECTANGLE Normal 2848 -112 2192 -80 2
RECTANGLE Normal 2848 96 2192 -80 2
RECTANGLE Normal 672 976 128 576 2
RECTANGLE Normal 4272 896 3520 720 2
RECTANGLE Normal 4272 976 2192 1008 2
RECTANGLE Normal 4272 1184 2192 1008 2
