Version 4
SHEET 1 8028 1092
WIRE 1568 -608 1408 -608
WIRE 1904 -592 1776 -592
WIRE 2064 -592 1904 -592
WIRE 640 -560 528 -560
WIRE 768 -560 640 -560
WIRE 960 -560 848 -560
WIRE 1024 -560 960 -560
WIRE 1408 -544 1408 -608
WIRE 1904 -544 1904 -592
WIRE 640 -528 640 -560
WIRE 2064 -528 2064 -592
WIRE -80 -512 -80 -640
WIRE -48 -512 -80 -512
WIRE 144 -512 48 -512
WIRE 256 -512 144 -512
WIRE 640 -432 640 -448
WIRE 832 -432 640 -432
WIRE 640 -416 640 -432
WIRE 0 -400 0 -448
WIRE 48 -400 0 -400
WIRE 144 -400 144 -512
WIRE 1408 -400 1408 -464
WIRE 1408 -400 1248 -400
WIRE 1904 -400 1904 -464
WIRE 2064 -400 2064 -464
WIRE 1408 -336 1408 -400
WIRE 832 -320 832 -432
WIRE 640 -304 640 -336
WIRE 96 -272 96 -336
WIRE 784 -256 528 -256
WIRE 960 -256 960 -560
WIRE 960 -256 880 -256
WIRE 1408 -192 1408 -256
WIRE 768 16 768 0
WIRE 1072 16 1072 0
WIRE 224 64 32 64
WIRE 1360 96 1360 0
WIRE 32 128 32 64
WIRE 768 160 768 96
WIRE 1072 160 1072 96
WIRE 928 208 832 208
WIRE 1008 208 928 208
WIRE 32 256 32 208
WIRE 928 288 928 208
WIRE 1072 288 1072 256
WIRE 1072 288 928 288
WIRE 1360 288 1360 176
WIRE 768 336 768 256
WIRE 1296 336 768 336
WIRE 768 384 768 336
WIRE 1072 384 1072 288
WIRE 640 432 528 432
WIRE 704 432 640 432
WIRE 1200 432 1136 432
WIRE 1360 448 1360 384
WIRE 1472 448 1360 448
WIRE 640 528 640 432
WIRE 768 528 768 480
WIRE 928 528 768 528
WIRE 1072 528 1072 480
WIRE 1072 528 928 528
WIRE 192 656 0 656
WIRE 640 656 640 608
WIRE 768 656 640 656
WIRE 0 704 0 656
WIRE 640 704 640 656
WIRE 928 704 928 528
WIRE 1360 704 1360 448
WIRE 768 752 768 656
WIRE 768 752 704 752
WIRE 864 752 768 752
WIRE 1296 752 864 752
WIRE 0 816 0 784
WIRE 640 832 640 800
WIRE 928 832 928 800
WIRE 1360 832 1360 800
WIRE 640 944 640 912
WIRE 928 944 928 912
WIRE 1360 960 1360 912
WIRE 1200 992 1200 432
FLAG 0 816 0
FLAG 192 656 V_ref
IOPIN 192 656 BiDir
FLAG 32 256 0
FLAG 224 64 V_in
IOPIN 224 64 BiDir
FLAG 768 0 V_in
IOPIN 768 0 BiDir
FLAG 1408 -192 0
FLAG 528 432 V_ref
IOPIN 528 432 BiDir
FLAG 1904 -400 0
FLAG 1776 -592 V_o
IOPIN 1776 -592 BiDir
FLAG 0 656 vref
FLAG 1904 -592 vo
FLAG 1200 992 V_f
IOPIN 1200 992 BiDir
FLAG 1568 -608 V_o
IOPIN 1568 -608 BiDir
FLAG 1248 -400 v_f
IOPIN 1248 -400 BiDir
FLAG 32 64 vi
FLAG -80 -640 V_in
IOPIN -80 -640 BiDir
FLAG 1472 448 V_amp
IOPIN 1472 448 BiDir
FLAG 96 -272 V_amp
IOPIN 96 -272 BiDir
FLAG 928 944 0
FLAG 1072 0 V_in
IOPIN 1072 0 BiDir
FLAG 1360 960 0
FLAG 1360 0 V_in
IOPIN 1360 0 BiDir
FLAG 640 944 0
FLAG 1024 -560 V_o
IOPIN 1024 -560 BiDir
FLAG 640 -304 0
FLAG 2064 -400 0
FLAG 256 -512 V_paso
IOPIN 256 -512 BiDir
FLAG 528 -560 V_paso
IOPIN 528 -560 BiDir
FLAG 528 -256 V_amp
IOPIN 528 -256 BiDir
SYMBOL voltage 32 112 R0
WINDOW 3 24 44 Left 2
WINDOW 123 24 44 Left 2
WINDOW 39 0 0 Left 0
SYMATTR Value {Vi}
SYMATTR InstName Vi
SYMBOL voltage 0 688 R0
WINDOW 3 24 152 Left 2
WINDOW 123 24 124 Left 2
WINDOW 39 0 0 Left 0
SYMATTR Value {VREF}
SYMATTR Value2 AC 0
SYMATTR InstName Vref
SYMBOL res 752 0 R0
SYMATTR InstName RC1
SYMATTR Value {RC1}
SYMBOL res 1392 -560 R0
SYMATTR InstName RD1
SYMATTR Value {RD1}
SYMBOL res 1392 -352 R0
SYMATTR InstName RD2
SYMATTR Value {RD2}
SYMBOL res 1888 -560 R0
SYMATTR InstName RL
SYMATTR Value {RL}
SYMBOL npn 704 384 R0
SYMATTR InstName Q1
SYMATTR Value BC547C
SYMBOL npn 48 -336 R270
SYMATTR InstName Q2
SYMATTR Value BC547B
SYMBOL pnp 48 -448 M270
SYMATTR InstName Q3
SYMATTR Value 2SB688
SYMBOL npn 1136 384 M0
SYMATTR InstName Q4
SYMATTR Value BC547C
SYMBOL res 912 816 R0
SYMATTR InstName RE1
SYMATTR Value {RE}
SYMBOL res 1056 0 R0
SYMATTR InstName RC2
SYMATTR Value {RC2}
SYMBOL pnp 832 256 R180
SYMATTR InstName Q6
SYMATTR Value BC557B
SYMBOL pnp 1008 256 M180
SYMATTR InstName Q5
SYMATTR Value BC557B
SYMBOL npn 1296 704 R0
SYMATTR InstName Q7
SYMATTR Value BC547C
SYMBOL res 1344 816 R0
SYMATTR InstName RB2
SYMATTR Value {RB2}
SYMBOL res 1344 80 R0
SYMATTR InstName RB1
SYMATTR Value {RB1}
SYMBOL pnp 1296 384 M180
SYMATTR InstName Q8
SYMATTR Value BC557C
SYMBOL npn 864 704 R0
SYMATTR InstName Q9
SYMATTR Value BC547C
SYMBOL npn 704 704 M0
SYMATTR InstName Q10
SYMATTR Value BC547C
SYMBOL res 624 512 R0
SYMATTR InstName R1
SYMATTR Value 1.5k
SYMBOL res 624 816 R0
SYMATTR InstName R2
SYMATTR Value {RE}
SYMBOL res 624 -544 R0
SYMATTR InstName RP1
SYMATTR Value {RP1}
SYMBOL res 624 -432 R0
SYMATTR InstName RP2
SYMATTR Value {RP2}
SYMBOL res 864 -576 R90
WINDOW 0 0 56 VBottom 2
WINDOW 3 32 56 VTop 2
SYMATTR InstName R5
SYMATTR Value {RS}
SYMBOL npn 784 -320 M90
SYMATTR InstName Q11
SYMATTR Value BC547B
SYMBOL cap 2048 -528 R0
SYMATTR InstName CL
SYMATTR Value {CL}
TEXT 2088 384 Left 2 ;.step param RC1 list 500 1k
TEXT 2768 -112 Left 2 ;Regulacion de carga
TEXT -168 -304 Left 2 ;Transistor de paso
TEXT 1256 -160 Left 2 ;Realimentador
TEXT 1784 -336 Left 2 ;Carga
TEXT 608 976 Left 2 ;Amplificador
TEXT -72 304 Left 2 ;Alimentacion
TEXT -88 896 Left 2 ;Generador
TEXT 2088 448 Left 2 ;.step param VREF 1.5 1.6 0.01
TEXT 2272 -112 Left 2 ;Eficiencia
TEXT 2264 -88 Left 2 ;-100*(V(vo)*I(RL))/(V(vi)*I(Vi))
TEXT 1688 -104 Left 2 ;Regulacion de linea
TEXT 1688 -80 Left 2 ;.dc Vi 0 10\n.param RL=3.33\n \n.meas DC Vol1rl FIND V(vo) AT=9.3\n.meas DC Vol2rl FIND V(vo) AT=9.7\n.meas DC RegLin PARAM ((Vol2rl - Vol1rl) / 0.4)
TEXT 2776 -80 Left 2 ;.op\n.step param RL list 3.33 500\n \n.meas OP Vo1rc FIND V(vo) AT 500\n.meas OP Vo2rc FIND V(vo) AT 3.33\n.meas OP Io1rc FIND I(RL) AT 500\n.meas OP Io2rc FIND I(RL) AT 3.33\n.meas OP RegCar PARAM (-(Vo2rc - Vo1rc) / (Io2rc - Io1rc) )
TEXT 1704 384 Left 2 !.param RC1=500
TEXT 1704 360 Left 2 ;Parametros generales
TEXT 2088 360 Left 2 ;Pruebas
TEXT 2264 -48 Left 2 ;.dc Vi 9.3 9.7\n.param RL=3.33
TEXT 1704 448 Left 2 !.param VREF=1.56
TEXT 1704 480 Left 2 !.param Vi=9.5
TEXT 2088 504 Left 2 ;.step param RE list 500 1k 2k
TEXT 1704 512 Left 2 !.param RE=1k
TEXT 1704 544 Left 2 !.param RB1=51
TEXT 2088 536 Left 2 ;.step param RB1 list 46 56
TEXT 1704 576 Left 2 !.param RB2=1.8k
TEXT 2088 568 Left 2 ;.step param RB2 1.5k 3k 500
TEXT -80 560 Left 2 ;Usar un potenciometro en el diseño final
TEXT 1704 416 Left 2 !.param RC2=500
TEXT 1712 872 Left 2 !.model TBJ-NPN-1 NPN(IS=4.679E-14 NF=1.01 ISE=2.642E-15 NE=1.581 BF={BETA} IKF=0.1371 VAF=52.64 NR=1.019 ISC=2.337E-14 NC=1.164 BR=11.57 IKR=0.1144 VAR=364.5 RB=1 IRB=1.00E-06 RBM=1 RE=0.2598 RC=1 XTB=0 EG=1.11 XTI=3 CJE=1.229E-11 VJE=0.5591 MJE=0.3385 TF=4.689E-10 XTF=160 VTF=2.828 ITF=0.8842 PTF=0 CJC=4.42E-12 VJC=0.1994 MJC=0.2782 XCJC=0.6193 TR=1.00E-32 CJS=0 VJS=0.75 MJS=0.333 FC=0.7936 Vceo=45 Icrating=100m mfg=Philips)
TEXT 1712 936 Left 2 !.param BETA 458.7
TEXT 1712 976 Left 2 ;.step param BETA list 420 520 800
TEXT 1712 904 Left 2 !.model 2SB688 PNP(Bf=70 Br=1 Is=73f Eg=1.11 Cjc=4.8p Cje=10p Vaf=100 Tf=1.923n Tr=10n Mjc=.330 Vjc=.75 Mje=.33 Vje=.75 Cjs=2p )
TEXT 2272 168 Left 2 !.op\n.step dec param RL 500 0.1m 5
TEXT 2272 136 Left 2 ;Limitador de corriente
TEXT 1712 840 Left 2 ;Modelos
TEXT 2088 416 Left 2 ;.step param RC2 list 1k 2k 5k
TEXT 1696 144 Left 2 ;Tension esperada
TEXT 1704 168 Left 2 ;.op\n.step param RL 3.33 500 10\n.meas OP VoMin MIN V(vo)\n.meas OP VoMax MAX V(vo)
TEXT 1704 608 Left 2 !.param CL=2.2u
TEXT 1704 640 Left 2 !.param RD1=2.2k RD2=1k
TEXT 2088 632 Left 2 ;.step dec param RD2 1 10k 4
TEXT 1704 672 Left 2 !.param RS=2.2
TEXT 1704 704 Left 2 !.param RP1=1k RP2=1.3k
TEXT 2088 704 Left 2 ;.step param RP1 list 1k 2k 2.5k  5k
TEXT 544 -184 Left 2 ;Limitador de corriente
TEXT 2088 664 Left 2 ;.step param RS list 1.5 1.7 2.2 2.5
RECTANGLE Normal 256 -272 -176 -640 2
RECTANGLE Normal 1568 -144 1248 -672 2
RECTANGLE Normal 2160 -320 1776 -672 2
RECTANGLE Normal 1472 992 528 0 2
RECTANGLE Normal -80 320 224 0 2
RECTANGLE Normal -96 912 192 576 2
RECTANGLE Normal 1024 -160 528 -640 2
