Version 4
SHEET 1 8108 1364
WIRE 1360 -592 1200 -592
WIRE -720 -576 -912 -576
WIRE -304 -560 -496 -560
WIRE 640 -560 512 -560
WIRE 832 -560 720 -560
WIRE 1200 -560 1200 -592
WIRE 1680 -560 1552 -560
WIRE 1840 -560 1680 -560
WIRE -912 -512 -912 -576
WIRE -496 -512 -496 -560
WIRE -80 -512 -80 -640
WIRE -48 -512 -80 -512
WIRE 144 -512 48 -512
WIRE 208 -512 144 -512
WIRE 256 -512 208 -512
WIRE 1680 -512 1680 -560
WIRE 1840 -496 1840 -560
WIRE 1072 -432 1040 -432
WIRE 1200 -432 1200 -480
WIRE 1200 -432 1136 -432
WIRE -496 -400 -496 -432
WIRE 0 -400 0 -448
WIRE 48 -400 0 -400
WIRE 144 -400 144 -512
WIRE 1200 -400 1200 -432
WIRE -912 -384 -912 -432
WIRE 1680 -368 1680 -432
WIRE 1840 -368 1840 -432
WIRE 96 -272 96 -336
WIRE 1200 -272 1200 -320
WIRE -784 -48 -784 -64
WIRE -480 -48 -480 -64
WIRE 224 -16 224 -64
WIRE 1120 -16 1120 -64
WIRE 1424 -16 1424 -64
WIRE 976 16 976 -64
WIRE -192 32 -192 -64
WIRE 1568 32 1568 -64
WIRE 512 80 512 -64
WIRE -784 96 -784 32
WIRE -480 96 -480 32
WIRE 224 128 224 64
WIRE 448 128 224 128
WIRE -624 144 -720 144
WIRE -544 144 -624 144
WIRE 1120 144 1120 64
WIRE 1424 144 1424 64
WIRE 224 192 224 128
WIRE 848 192 800 192
WIRE 976 192 976 96
WIRE 976 192 928 192
WIRE 1056 192 976 192
WIRE 1568 192 1568 112
WIRE 1568 192 1488 192
WIRE 1616 192 1568 192
WIRE 1744 192 1696 192
WIRE -624 224 -624 144
WIRE -480 224 -480 192
WIRE -480 224 -624 224
WIRE -192 224 -192 112
WIRE 800 256 800 192
WIRE 976 256 976 192
WIRE 1568 256 1568 192
WIRE 1744 256 1744 192
WIRE -784 272 -784 192
WIRE -256 272 -784 272
WIRE 1120 288 1120 240
WIRE 1280 288 1120 288
WIRE 1424 288 1424 240
WIRE 1424 288 1280 288
WIRE -784 320 -784 272
WIRE -480 320 -480 224
WIRE 224 320 224 272
WIRE -912 368 -1024 368
WIRE -848 368 -912 368
WIRE -352 368 -416 368
WIRE -192 384 -192 320
WIRE -80 384 -192 384
WIRE 976 384 976 336
WIRE 1280 384 1280 288
WIRE 1568 384 1568 336
WIRE 1568 384 1280 384
WIRE 512 416 512 176
WIRE 1280 416 1280 384
WIRE -912 464 -912 368
WIRE -784 464 -784 416
WIRE -624 464 -784 464
WIRE -480 464 -480 416
WIRE -480 464 -624 464
WIRE 1280 464 1280 432
WIRE 1280 512 1280 480
WIRE -912 592 -912 544
WIRE -784 592 -912 592
WIRE -912 640 -912 592
WIRE -624 640 -624 464
WIRE -192 640 -192 384
WIRE -784 688 -784 592
WIRE -784 688 -848 688
WIRE -688 688 -784 688
WIRE -256 688 -688 688
WIRE -912 768 -912 736
WIRE -624 768 -624 736
WIRE -192 768 -192 736
WIRE -912 880 -912 848
WIRE -624 880 -624 848
WIRE -192 880 -192 848
WIRE -352 944 -352 368
FLAG -496 -400 0
FLAG -304 -560 V_ref
IOPIN -304 -560 BiDir
FLAG -912 -384 0
FLAG -720 -576 V_in
IOPIN -720 -576 BiDir
FLAG -784 -64 V_in
IOPIN -784 -64 BiDir
FLAG 1200 -272 0
FLAG -1024 368 V_ref
IOPIN -1024 368 BiDir
FLAG 1680 -368 0
FLAG 1552 -560 V_o
IOPIN 1552 -560 BiDir
FLAG -496 -560 vref
FLAG 1680 -560 vo
FLAG -352 944 V_f
IOPIN -352 944 BiDir
FLAG 1360 -592 V_o
IOPIN 1360 -592 BiDir
FLAG 1040 -432 V_f
IOPIN 1040 -432 BiDir
FLAG -912 -576 vi
FLAG -80 -640 V_in
IOPIN -80 -640 BiDir
FLAG -80 384 V_amp
IOPIN -80 384 BiDir
FLAG 96 -272 V_amp
IOPIN 96 -272 BiDir
FLAG -624 880 0
FLAG -480 -64 V_in
IOPIN -480 -64 BiDir
FLAG -192 880 0
FLAG -192 -64 V_in
IOPIN -192 -64 BiDir
FLAG -912 880 0
FLAG 832 -560 V_o
IOPIN 832 -560 BiDir
FLAG 1840 -368 0
FLAG 256 -512 V_paso
IOPIN 256 -512 BiDir
FLAG 512 -560 V_paso
IOPIN 512 -560 BiDir
FLAG 224 320 0
FLAG 512 416 V_amp
IOPIN 512 416 BiDir
FLAG 224 -64 V_paso
IOPIN 224 -64 BiDir
FLAG 512 -64 V_o
IOPIN 512 -64 BiDir
FLAG 208 -512 v_paso
FLAG 976 -64 V_paso
IOPIN 976 -64 BiDir
FLAG 1568 -64 V_o
IOPIN 1568 -64 BiDir
FLAG 1280 512 V_f
IOPIN 1280 512 BiDir
FLAG 1120 -64 V_ref
IOPIN 1120 -64 BiDir
FLAG 1424 -64 V_ref
IOPIN 1424 -64 BiDir
FLAG 976 384 0
FLAG 800 256 0
FLAG 1744 256 0
SYMBOL voltage -912 -528 R0
WINDOW 3 24 44 Left 2
WINDOW 123 24 44 Left 2
WINDOW 39 0 0 Left 0
SYMATTR Value {Vi}
SYMATTR InstName Vi
SYMBOL voltage -496 -528 R0
WINDOW 3 24 152 Left 2
WINDOW 123 24 124 Left 2
WINDOW 39 0 0 Left 0
SYMATTR Value {VREF}
SYMATTR Value2 AC 0
SYMATTR InstName Vref
SYMBOL res -800 -64 R0
SYMATTR InstName RC1
SYMATTR Value {RC1}
SYMBOL res 1184 -576 R0
SYMATTR InstName RD1
SYMATTR Value {RD1}
SYMBOL res 1184 -416 R0
SYMATTR InstName RD2
SYMATTR Value {RD2}
SYMBOL res 1664 -528 R0
SYMATTR InstName RL
SYMATTR Value {RL}
SYMBOL npn -848 320 R0
SYMATTR InstName Q1
SYMATTR Value BC547C
SYMBOL npn 48 -336 R270
SYMATTR InstName Q2
SYMATTR Value BC547B
SYMBOL pnp 48 -448 M270
SYMATTR InstName Q3
SYMATTR Value 2SB688
SYMBOL npn -416 320 M0
SYMATTR InstName Q4
SYMATTR Value BC547C
SYMBOL res -640 752 R0
SYMATTR InstName RE1
SYMATTR Value {RE}
SYMBOL res -496 -64 R0
SYMATTR InstName RC2
SYMATTR Value {RC2}
SYMBOL pnp -720 192 R180
SYMATTR InstName Q6
SYMATTR Value BC557B
SYMBOL pnp -544 192 M180
SYMATTR InstName Q5
SYMATTR Value BC557B
SYMBOL npn -256 640 R0
SYMATTR InstName Q7
SYMATTR Value BC547C
SYMBOL res -208 752 R0
SYMATTR InstName RB2
SYMATTR Value {RB2}
SYMBOL res -208 16 R0
SYMATTR InstName RB1
SYMATTR Value {RB1}
SYMBOL pnp -256 320 M180
SYMATTR InstName Q8
SYMATTR Value BC557C
SYMBOL npn -688 640 R0
SYMATTR InstName Q9
SYMATTR Value BC547C
SYMBOL npn -848 640 M0
SYMATTR InstName Q10
SYMATTR Value BC547C
SYMBOL res -928 448 R0
SYMATTR InstName R1
SYMATTR Value 1.5k
SYMBOL res -928 752 R0
SYMATTR InstName R2
SYMATTR Value {RE}
SYMBOL res 736 -576 R90
WINDOW 0 0 56 VBottom 2
WINDOW 3 32 56 VTop 2
SYMATTR InstName R5
SYMATTR Value {RS}
SYMBOL cap 1824 -496 R0
SYMATTR InstName CL
SYMATTR Value {CL}
SYMBOL res 208 -32 R0
SYMATTR InstName RP3
SYMATTR Value {RP1}
SYMBOL res 208 176 R0
SYMATTR InstName RP4
SYMATTR Value {RP2}
SYMBOL npn 448 176 M180
SYMATTR InstName Q12
SYMATTR Value BC547C
SYMBOL Misc\\jumper 1104 -496 R0
SYMATTR InstName X1
SYMBOL npn 1056 144 R0
SYMATTR InstName Q11
SYMATTR Value BC547C
SYMBOL npn 1488 144 M0
SYMATTR InstName Q13
SYMATTR Value BC547C
SYMBOL Misc\\jumper 1344 448 R90
SYMATTR InstName X2
SYMBOL res 1552 16 R0
SYMATTR InstName R3
SYMATTR Value {ALC_R1}
SYMBOL res 1584 240 M0
SYMATTR InstName R4
SYMATTR Value {ALC_R3}
SYMBOL res 1104 -32 R0
SYMATTR InstName R6
SYMATTR Value {ALC_C1}
SYMBOL res 1440 80 R180
WINDOW 0 36 76 Left 2
WINDOW 3 36 40 Left 2
SYMATTR InstName R7
SYMATTR Value {ALC_C2}
SYMBOL res 992 0 M0
SYMATTR InstName R8
SYMATTR Value {ALC_R1}
SYMBOL res 960 240 R0
SYMATTR InstName R9
SYMATTR Value {ALC_R3}
SYMBOL res 1712 176 R90
WINDOW 0 0 56 VBottom 2
WINDOW 3 32 56 VTop 2
SYMATTR InstName R10
SYMATTR Value {ALC_R2}
SYMBOL res 944 208 M270
WINDOW 0 32 56 VTop 2
WINDOW 3 0 56 VBottom 2
SYMATTR InstName R11
SYMATTR Value {ALC_R2}
TEXT 2872 856 Left 2 ;.step param RC1 list 500 1k
TEXT 3544 -192 Left 2 ;Regulacion de carga
TEXT -168 -288 Left 2 ;Transistor de paso
TEXT 1048 -216 Left 2 ;Realimentador tension
TEXT 1560 -304 Left 2 ;Carga
TEXT -1016 928 Left 2 ;Amplificador
TEXT -1016 -336 Left 2 ;Alimentacion
TEXT -584 -336 Left 2 ;Generador
TEXT 2872 -192 Left 2 ;Eficiencia
TEXT 2280 -192 Left 2 ;Regulacion de linea
TEXT 2280 -160 Left 2 ;.dc Vi 0 10\n \n.meas DC Vol1rl FIND V(vo) AT=9.3\n.meas DC Vol2rl FIND V(vo) AT=9.7\n.meas DC RegLin PARAM ((Vol2rl - Vol1rl) / 0.4)
TEXT 3544 -168 Left 2 ;.op\n.step param RL list 3.33 500\n \n.meas OP Vo1rc FIND V(vo) AT 500\n.meas OP Vo2rc FIND V(vo) AT 3.33\n.meas OP Io1rc FIND I(RL) AT 500\n.meas OP Io2rc FIND I(RL) AT 3.33\n.meas OP RegCar PARAM (-(Vo2rc - Vo1rc) / (Io2rc - Io1rc) )
TEXT 2872 672 Left 2 !.param RC1=500
TEXT 2280 640 Left 2 ;Generales
TEXT 2872 640 Left 2 ;Amplificador
TEXT 2872 -160 Left 2 ;.dc Vi 9.3 9.7\n \n.meas DC EfiMin MIN -100*(V(vo)*I(RL))/(V(vi)*I(Vi))\n.meas DC EfiMax MAX -100*(V(vo)*I(RL))/(V(vi)*I(Vi))
TEXT 2280 704 Left 2 !.param VREF=1.56
TEXT 2280 672 Left 2 !.param Vi=9.5
TEXT 2872 920 Left 2 ;.step param RE list 500 1k 2k
TEXT 2872 736 Left 2 !.param RE=1k
TEXT 2872 768 Left 2 !.param RB1=51
TEXT 2872 952 Left 2 ;.step param RB1 list 46 56
TEXT 2872 800 Left 2 !.param RB2=1.8k
TEXT 2872 984 Left 2 ;.step param RB2 1.5k 3k 500
TEXT 2872 704 Left 2 !.param RC2=500
TEXT 2264 -496 Left 2 !.model TBJ-NPN-1 NPN(IS=4.679E-14 NF=1.01 ISE=2.642E-15 NE=1.581 BF={BETA} IKF=0.1371 VAF=52.64 NR=1.019 ISC=2.337E-14 NC=1.164 BR=11.57 IKR=0.1144 VAR=364.5 RB=1 IRB=1.00E-06 RBM=1 RE=0.2598 RC=1 XTB=0 EG=1.11 XTI=3 CJE=1.229E-11 VJE=0.5591 MJE=0.3385 TF=4.689E-10 XTF=160 VTF=2.828 ITF=0.8842 PTF=0 CJC=4.42E-12 VJC=0.1994 MJC=0.2782 XCJC=0.6193 TR=1.00E-32 CJS=0 VJS=0.75 MJS=0.333 FC=0.7936 Vceo=45 Icrating=100m mfg=Philips)
TEXT 2264 -432 Left 2 !.param BETA 458.7
TEXT 2264 -392 Left 2 ;.step param BETA list 420 520 800
TEXT 2264 -464 Left 2 !.model 2SB688 PNP(Bf=70 Br=1 Is=73f Eg=1.11 Cjc=4.8p Cje=10p Vaf=100 Tf=1.923n Tr=10n Mjc=.330 Vjc=.75 Mje=.33 Vje=.75 Cjs=2p )
TEXT 2872 112 Left 2 !.op\n.step dec param RL 500 0.1m 5
TEXT 2872 80 Left 2 ;Limitador de corriente
TEXT 2264 -528 Left 2 ;Modelos
TEXT 2872 888 Left 2 ;.step param RC2 list 1k 2k 5k
TEXT 2280 80 Left 2 ;Tension esperada
TEXT 2280 112 Left 2 ;.op\n.step param RL 3.33 500 10\n.meas OP VoMin MIN V(vo)\n.meas OP VoMax MAX V(vo)
TEXT 2280 736 Left 2 !.param CL=2.2u
TEXT 2872 1072 Left 2 !.param RD1=2.2k
TEXT 2872 1160 Left 2 ;.step dec param RD1 1 10k 4
TEXT 2280 1072 Left 2 !.param RS=2.2
TEXT 3544 1072 Left 2 !.param RP1=4.7k
TEXT 3544 1160 Left 2 ;.step param RP1 list 1k 2k 2.5k  5k
TEXT 520 -440 Left 2 ;Relimentador corriente
TEXT 2280 1160 Left 2 ;.step param RS list 1.5 1.7 2.2 2.5
TEXT 128 392 Left 2 ;Limitador de corriente
TEXT 3544 80 Left 2 ;LDO
TEXT 3544 120 Left 2 ;.dc Vi 0 10\n \n.meas DC VpasoMax MAX V(v_paso)\n.meas DC ViMin FIND V(vi) WHEN V(v_paso) = VpasoMax - 0.05\n.meas DC dropout PARAM ViMin - VpasoMax
TEXT 752 488 Left 2 ;Amplificador lazo corriente
TEXT 2280 864 Left 2 ;.step param VREF 1.5 1.6 0.01
TEXT 2280 768 Left 2 !.param RL=3.33
TEXT 3544 640 Left 2 ;Amplificador lazo corriente
TEXT 2280 1040 Left 2 ;Relimentador corriente
TEXT 2280 608 Left 2 ;Parametros
TEXT 2280 -224 Left 2 ;Metricas
TEXT 2872 1040 Left 2 ;Realimentador tension
TEXT 2872 1104 Left 2 !.param RD2=1k
TEXT 2872 1192 Left 2 ;.step dec param RD2 1 10k 4
TEXT 3544 1040 Left 2 ;Limitador de corriente
TEXT 3544 1104 Left 2 !.param RP2=4.7k
TEXT 3544 1192 Left 2 ;.step param RP1 list 1k 2k 2.5k  5k
TEXT 3544 672 Left 2 !.param ALC_C1=1k
TEXT 3544 704 Left 2 !.param ALC_C2=1k
TEXT 3544 736 Left 2 !.param ALC_R1=3.9k
TEXT 3544 768 Left 2 !.param ALC_R2=1.8k
TEXT 3544 856 Left 2 ;.step param ALC_C1 list 250 500 1k 2k
TEXT 3544 888 Left 2 ;.step param ALC_C2 list 500 1k
TEXT 3544 920 Left 2 ;.step param ALC_R1 list 100k 200k 300k 400k 500k
TEXT 3544 952 Left 2 ;.step param ALC_R2 1.5k 2.5k 100
TEXT 3544 800 Left 2 !.param ALC_R3=510
TEXT 3544 984 Left 2 ;.step param ALC_R3 list 510 680 820 1k 1,5k 2.2k
TEXT 2872 288 Left 2 ;Corriente esperada
TEXT 2872 320 Left 2 ;.dc Vi 9.3 9.7\n \n.meas DC IoMin MIN I(rl)\n.meas DC IoMax MAX I(rl)\n.meas DC diff PARAM IoMax - IoMin
TEXT 2280 288 Left 2 ;Barrido de tension
TEXT 2280 320 Left 2 ;.dc Vi 0 10
LINE Normal 4288 832 2272 832 2
LINE Normal 4288 1136 2272 1136 2
RECTANGLE Normal 256 -272 -176 -640 2
RECTANGLE Normal 1360 -192 1040 -640 2
RECTANGLE Normal 1936 -288 1552 -640 2
RECTANGLE Normal -80 944 -1024 -64 2
RECTANGLE Normal -1024 -320 -720 -640 2
RECTANGLE Normal -592 -320 -304 -640 2
RECTANGLE Normal 832 -416 512 -640 2
RECTANGLE Normal 608 416 112 -64 2
RECTANGLE Normal 2864 64 2272 -176 2
RECTANGLE Normal 3536 64 2864 -176 2
RECTANGLE Normal 4288 64 3536 -176 2
RECTANGLE Normal 2864 -208 2272 -176 2
RECTANGLE Normal 3536 -208 2864 -176 2
RECTANGLE Normal 4288 -208 3536 -176 2
RECTANGLE Normal 2864 64 2272 96 2
RECTANGLE Normal 3536 64 2864 96 2
RECTANGLE Normal 4288 64 3536 96 2
RECTANGLE Normal 2864 272 2272 96 2
RECTANGLE Normal 4288 272 3536 96 2
RECTANGLE Normal 2864 624 2272 656 2
RECTANGLE Normal 2864 1024 2272 656 2
RECTANGLE Normal 3536 1024 2864 656 2
RECTANGLE Normal 1792 512 736 -64 2
RECTANGLE Normal 3536 624 2864 656 2
RECTANGLE Normal 3536 272 2864 96 2
RECTANGLE Normal 4288 624 3536 656 2
RECTANGLE Normal 4288 1024 3536 656 2
RECTANGLE Normal 2864 1024 2272 1056 2
RECTANGLE Normal 3536 1024 2864 1056 2
RECTANGLE Normal 4288 1024 3536 1056 2
RECTANGLE Normal 2864 1232 2272 1056 2
RECTANGLE Normal 4288 592 2272 624 2
RECTANGLE Normal 4288 -240 2272 -208 2
RECTANGLE Normal 3536 1232 2864 1056 2
RECTANGLE Normal 4288 1232 3536 1056 2
RECTANGLE Normal 2864 304 3536 272 2
RECTANGLE Normal 3536 480 2864 304 2
RECTANGLE Normal 2864 272 2272 304 2
RECTANGLE Normal 2864 480 2272 304 2
