Version 4
SHEET 1 8164 4196
WIRE 1360 -592 1200 -592
WIRE -304 -560 -496 -560
WIRE 640 -560 512 -560
WIRE 832 -560 720 -560
WIRE 1200 -560 1200 -592
WIRE 1680 -560 1552 -560
WIRE 1840 -560 1680 -560
WIRE -496 -512 -496 -560
WIRE -80 -512 -80 -640
WIRE -48 -512 -80 -512
WIRE 144 -512 48 -512
WIRE 208 -512 144 -512
WIRE 256 -512 208 -512
WIRE 1680 -512 1680 -560
WIRE 1840 -496 1840 -560
WIRE 1200 -432 1200 -480
WIRE 1200 -432 1040 -432
WIRE -496 -400 -496 -432
WIRE 0 -400 0 -448
WIRE 48 -400 0 -400
WIRE 144 -400 144 -512
WIRE 1200 -400 1200 -432
WIRE 1680 -368 1680 -432
WIRE 1840 -368 1840 -432
WIRE 96 -272 96 -336
WIRE 1200 -272 1200 -320
WIRE -304 -64 -496 -64
WIRE 288 -48 288 -64
WIRE 592 -48 592 -64
WIRE 1552 -16 1552 -64
WIRE -496 0 -496 -64
WIRE 880 32 880 -64
WIRE 1856 80 1856 -64
WIRE 288 96 288 32
WIRE 592 96 592 32
WIRE -496 128 -496 80
WIRE 1552 128 1552 64
WIRE 1792 128 1552 128
WIRE 448 144 352 144
WIRE 528 144 448 144
WIRE 1552 192 1552 128
WIRE 448 224 448 144
WIRE 592 224 592 192
WIRE 592 224 448 224
WIRE 880 224 880 112
WIRE 288 272 288 192
WIRE 816 272 288 272
WIRE 288 320 288 272
WIRE 592 320 592 224
WIRE 1552 320 1552 272
WIRE 160 368 48 368
WIRE 224 368 160 368
WIRE 720 368 656 368
WIRE 880 384 880 320
WIRE 992 384 880 384
WIRE 1856 416 1856 176
WIRE 160 464 160 368
WIRE 288 464 288 416
WIRE 448 464 288 464
WIRE 592 464 592 416
WIRE 592 464 448 464
WIRE 160 592 160 544
WIRE 288 592 160 592
WIRE 160 640 160 592
WIRE 448 640 448 464
WIRE 880 640 880 384
WIRE 288 688 288 592
WIRE 288 688 224 688
WIRE 384 688 288 688
WIRE 816 688 384 688
WIRE 160 768 160 736
WIRE 448 768 448 736
WIRE 720 768 720 368
WIRE 880 768 880 736
WIRE 160 880 160 848
WIRE 448 880 448 848
WIRE 880 880 880 848
WIRE 720 944 720 848
FLAG -496 -400 0
FLAG -304 -560 V_ref
IOPIN -304 -560 BiDir
FLAG -496 128 0
FLAG -304 -64 V_in
IOPIN -304 -64 BiDir
FLAG 288 -64 V_in
IOPIN 288 -64 BiDir
FLAG 1200 -272 0
FLAG 48 368 V_ref
IOPIN 48 368 BiDir
FLAG 1680 -368 0
FLAG 1552 -560 V_o
IOPIN 1552 -560 BiDir
FLAG -496 -560 vref
FLAG 1680 -560 vo
FLAG 720 944 V_f
IOPIN 720 944 BiDir
FLAG 1360 -592 V_o
IOPIN 1360 -592 BiDir
FLAG 1040 -432 V_fv
IOPIN 1040 -432 BiDir
FLAG -496 -64 vi
FLAG -80 -640 V_in
IOPIN -80 -640 BiDir
FLAG 992 384 V_amp
IOPIN 992 384 BiDir
FLAG 96 -272 V_amp
IOPIN 96 -272 BiDir
FLAG 448 880 0
FLAG 592 -64 V_in
IOPIN 592 -64 BiDir
FLAG 880 880 0
FLAG 880 -64 V_in
IOPIN 880 -64 BiDir
FLAG 160 880 0
FLAG 832 -560 V_o
IOPIN 832 -560 BiDir
FLAG 1840 -368 0
FLAG 256 -512 V_paso
IOPIN 256 -512 BiDir
FLAG 512 -560 V_paso
IOPIN 512 -560 BiDir
FLAG 1552 320 0
FLAG 1856 416 V_amp
IOPIN 1856 416 BiDir
FLAG 1552 -64 V_paso
IOPIN 1552 -64 BiDir
FLAG 1856 -64 V_o
IOPIN 1856 -64 BiDir
FLAG 208 -512 v_paso
SYMBOL voltage -496 -16 R0
WINDOW 3 24 44 Left 2
WINDOW 123 24 44 Left 2
WINDOW 39 0 0 Left 0
SYMATTR Value {Vi}
SYMATTR InstName Vi
SYMBOL voltage -496 -528 R0
WINDOW 3 24 152 Left 2
WINDOW 123 24 124 Left 2
WINDOW 39 0 0 Left 0
SYMATTR Value {VREF}
SYMATTR Value2 AC 0
SYMATTR InstName Vref
SYMBOL res 272 -64 R0
SYMATTR InstName RC1
SYMATTR Value {RC1}
SYMBOL res 1184 -576 R0
SYMATTR InstName RD1
SYMATTR Value {RD1}
SYMBOL res 1184 -416 R0
SYMATTR InstName RD2
SYMATTR Value {RD2}
SYMBOL res 1664 -528 R0
SYMATTR InstName RL
SYMATTR Value {RL}
SYMBOL npn 224 320 R0
SYMATTR InstName Q1
SYMATTR Value BC547C
SYMBOL npn 48 -336 R270
SYMATTR InstName Q2
SYMATTR Value BC547B
SYMBOL pnp 48 -448 M270
SYMATTR InstName Q3
SYMATTR Value 2SB688
SYMBOL npn 656 320 M0
SYMATTR InstName Q4
SYMATTR Value BC547C
SYMBOL res 432 752 R0
SYMATTR InstName RE1
SYMATTR Value {RE}
SYMBOL res 576 -64 R0
SYMATTR InstName RC2
SYMATTR Value {RC2}
SYMBOL pnp 352 192 R180
SYMATTR InstName Q6
SYMATTR Value BC557B
SYMBOL pnp 528 192 M180
SYMATTR InstName Q5
SYMATTR Value BC557B
SYMBOL npn 816 640 R0
SYMATTR InstName Q7
SYMATTR Value BC547C
SYMBOL res 864 752 R0
SYMATTR InstName RB2
SYMATTR Value {RB2}
SYMBOL res 864 16 R0
SYMATTR InstName RB1
SYMATTR Value {RB1}
SYMBOL pnp 816 320 M180
SYMATTR InstName Q8
SYMATTR Value BC557C
SYMBOL npn 384 640 R0
SYMATTR InstName Q9
SYMATTR Value BC547C
SYMBOL npn 224 640 M0
SYMATTR InstName Q10
SYMATTR Value BC547C
SYMBOL res 144 448 R0
SYMATTR InstName R1
SYMATTR Value 1k
SYMBOL res 144 752 R0
SYMATTR InstName R2
SYMATTR Value {RE}
SYMBOL res 736 -576 R90
WINDOW 0 0 56 VBottom 2
WINDOW 3 32 56 VTop 2
SYMATTR InstName R5
SYMATTR Value {RS}
SYMBOL cap 1824 -496 R0
SYMATTR InstName CL
SYMATTR Value {CL}
SYMBOL res 1536 -32 R0
SYMATTR InstName RP3
SYMATTR Value {RP1}
SYMBOL res 1536 176 R0
SYMATTR InstName RP4
SYMATTR Value {RP2}
SYMBOL npn 1792 176 M180
SYMATTR InstName Q12
SYMATTR Value BC547C
SYMBOL res 704 752 R0
SYMATTR InstName R12
SYMATTR Value 1k
TEXT 2856 488 Left 2 ;.step param RC1 list 500 1k
TEXT 3528 -592 Left 2 ;Regulacion de carga
TEXT -168 -288 Left 2 ;Transistor de paso
TEXT 1048 -216 Left 2 ;Realimentador tension
TEXT 1560 -304 Left 2 ;Carga
TEXT 56 928 Left 2 ;Amplificador
TEXT -600 176 Left 2 ;Alimentacion
TEXT -584 -336 Left 2 ;Generador
TEXT 2856 -592 Left 2 ;Eficiencia
TEXT 2200 -592 Left 2 ;Regulacion de linea
TEXT 2200 -560 Left 2 ;.dc Vi 0 10\n \n.meas DC Vol1rl FIND V(vo) AT=9.3\n.meas DC Vol2rl FIND V(vo) AT=9.7\n.meas DC RegLin PARAM ((Vol2rl - Vol1rl) / 0.4)
TEXT 3528 -568 Left 2 ;.op\n.step param RL list 3.33 500\n \n.meas OP Vo1rc FIND V(vo) AT 500\n.meas OP Vo2rc FIND V(vo) AT 3.33\n.meas OP Io1rc FIND I(RL) AT 500\n.meas OP Io2rc FIND I(RL) AT 3.33\n.meas OP RegCar PARAM (-(Vo2rc - Vo1rc) / (Io2rc - Io1rc) )
TEXT 2856 272 Left 2 !.param RC1=500
TEXT 2200 240 Left 2 ;Generales
TEXT 2856 240 Left 2 ;Amplificador
TEXT 2856 -560 Left 2 !.dc Vi 9.3 9.7\n \n.meas DC EfiMin MIN -100*(V(vo)*I(RL))/(V(vi)*I(Vi))\n.meas DC EfiMax MAX -100*(V(vo)*I(RL))/(V(vi)*I(Vi))
TEXT 2200 304 Left 2 !.param VREF=1.57
TEXT 2200 272 Left 2 !.param Vi=9.5
TEXT 2856 552 Left 2 ;.step param RE list 500 1k 2k
TEXT 2856 336 Left 2 !.param RE=10k
TEXT 2856 368 Left 2 !.param RB1=51
TEXT 2856 584 Left 2 ;.step param RB1 list 46 56
TEXT 2856 400 Left 2 !.param RB2=1.8k
TEXT 2856 616 Left 2 ;.step param RB2 1.5k 3k 500
TEXT 2856 304 Left 2 !.param RC2=500
TEXT 2200 1032 Left 2 !.model 2SB688 PNP(Bf=70 Br=1 Is=73f Eg=1.11 Cjc=4.8p Cje=10p Vaf=100 Tf=1.923n Tr=10n Mjc=.330 Vjc=.75 Mje=.33 Vje=.75 Cjs=2p )
TEXT 2856 -288 Left 2 ;.op\n.step dec param RL 500 0.1m 5
TEXT 2856 -320 Left 2 ;Limitador de corriente
TEXT 2208 992 Left 2 ;Modelos
TEXT 2856 520 Left 2 ;.step param RC2 list 1k 2k 5k
TEXT 2200 -320 Left 2 ;Tension esperada
TEXT 2200 -288 Left 2 ;.op\n.step param RL 3.33 500 10\n \n.meas OP VoMin MIN V(vo) - 5\n.meas OP VoMax MAX V(vo) - 5\n.meas OP diff PARAM max(abs(VoMin), abs(VoMax))
TEXT 2200 336 Left 2 !.param CL=2.2u
TEXT 2856 736 Left 2 !.param RD1=2.2k
TEXT 2856 824 Left 2 ;.step dec param RD1 1 10k 4
TEXT 2200 736 Left 2 !.param RS=2.2
TEXT 520 -440 Left 2 ;Relimentador corriente
TEXT 2200 824 Left 2 ;.step param RS list 1.5 1.7 2.2 2.5
TEXT 1456 392 Left 2 ;Limitador de corriente
TEXT 3528 -320 Left 2 ;LDO
TEXT 3528 -280 Left 2 ;.dc Vi 0 10\n \n.meas DC VpasoMax MAX V(v_paso)\n.meas DC ViMin FIND V(vi) WHEN V(v_paso) = VpasoMax - 0.05\n.meas DC dropout PARAM ViMin - VpasoMax
TEXT 2200 496 Left 2 ;.step param VREF 1.55 1.57 0.001
TEXT 2200 368 Left 2 !.param RL=3.33
TEXT 2200 704 Left 2 ;Relimentador corriente
TEXT 2200 208 Left 2 ;Parametros
TEXT 2200 -624 Left 2 ;Metricas
TEXT 2856 704 Left 2 ;Realimentador tension
TEXT 2856 768 Left 2 !.param RD2=1k
TEXT 2856 856 Left 2 ;.step dec param RD2 1 10k 4
TEXT 2856 -96 Left 2 ;Corriente esperada
TEXT 2856 -64 Left 2 ;.dc Vi 9.3 9.7\n \n.meas DC IoMin MIN I(rl) - 1.5\n.meas DC IoMax MAX I(rl) - 1.5\n.meas DC diff PARAM max(abs(IoMin), abs(IoMax))
TEXT 2200 -96 Left 2 ;Barrido de tension
TEXT 2200 -64 Left 2 ;.dc Vi 0 10
TEXT 3528 736 Left 2 !.param RP1=100
TEXT 3528 824 Left 2 ;.step param RP1 list 1k 2k 2.5k  5k
TEXT 3752 704 Left 2 ;Limitador de corriente
TEXT 3528 768 Left 2 !.param RP2=180
TEXT 3528 856 Left 2 ;.step param RP1 list 1k 2k 2.5k  5k
LINE Normal 4272 464 2192 464 2
LINE Normal 4272 800 2192 800 2
RECTANGLE Normal 256 -272 -176 -640 2
RECTANGLE Normal 1360 -176 1040 -640 2
RECTANGLE Normal 1936 -288 1552 -640 2
RECTANGLE Normal 992 944 48 -64 2
RECTANGLE Normal -608 192 -304 -128 2
RECTANGLE Normal -592 -320 -304 -640 2
RECTANGLE Normal 832 -416 512 -640 2
RECTANGLE Normal 1952 416 1440 -64 2
RECTANGLE Normal 2848 -336 2192 -576 2
RECTANGLE Normal 3520 -336 2848 -576 2
RECTANGLE Normal 4272 -336 3520 -576 2
RECTANGLE Normal 2848 -608 2192 -576 2
RECTANGLE Normal 3520 -608 2848 -576 2
RECTANGLE Normal 4272 -608 3520 -576 2
RECTANGLE Normal 2848 -336 2192 -304 2
RECTANGLE Normal 3520 -336 2848 -304 2
RECTANGLE Normal 4272 -336 3520 -304 2
RECTANGLE Normal 2848 -112 2192 -304 2
RECTANGLE Normal 4272 -112 3520 -304 2
RECTANGLE Normal 2848 224 2192 256 2
RECTANGLE Normal 2848 688 2192 256 2
RECTANGLE Normal 3520 688 2848 256 2
RECTANGLE Normal 3520 224 2848 256 2
RECTANGLE Normal 3520 -112 2848 -304 2
RECTANGLE Normal 4272 224 3520 256 2
RECTANGLE Normal 4272 688 3520 256 2
RECTANGLE Normal 2848 688 2192 720 2
RECTANGLE Normal 3520 688 2848 720 2
RECTANGLE Normal 4272 688 3520 720 2
RECTANGLE Normal 2848 896 2192 720 2
RECTANGLE Normal 4272 192 2192 224 2
RECTANGLE Normal 4272 -640 2192 -608 2
RECTANGLE Normal 3520 896 2848 720 2
RECTANGLE Normal 2848 -80 3520 -112 2
RECTANGLE Normal 3520 96 2848 -80 2
RECTANGLE Normal 2848 -112 2192 -80 2
RECTANGLE Normal 2848 96 2192 -80 2
RECTANGLE Normal 4272 896 3520 720 2
RECTANGLE Normal 4272 976 2192 1008 2
RECTANGLE Normal 4272 1184 2192 1008 2
